101680
  -OEChem-02092319252D

 29 30  0     1  0  0  0  0  0999 V2000
    2.4490   -1.2027    0.0000 O   0  0  0  0  0  0  0  0  0  0  0  0
    2.9816    0.2218    0.0000 C   0  0  0  0  0  0  0  0  0  0  0  0
    4.9552    0.8400    0.0000 C   0  0  3  0  0  0  0  0  0  0  0  0
    4.6964   -0.1259    0.0000 C   0  0  3  0  0  0  0  0  0  0  0  0
    3.3236   -0.7179    0.0000 C   0  0  3  0  0  0  0  0  0  0  0  0
    4.2186    1.8226    0.0000 C   0  0  0  0  0  0  0  0  0  0  0  0
    6.3541    0.3312    0.0000 C   0  0  0  0  0  0  0  0  0  0  0  0
    6.0953   -0.6347    0.0000 C   0  0  0  0  0  0  0  0  0  0  0  0
    2.4968    1.0964    0.0000 C   0  0  0  0  0  0  0  0  0  0  0  0
    2.0000    0.0310    0.0000 C   0  0  0  0  0  0  0  0  0  0  0  0
    3.5145   -1.6996    0.0000 C   0  0  0  0  0  0  0  0  0  0  0  0
    4.9411    0.2202    0.0000 H   0  0  0  0  0  0  0  0  0  0  0  0
    4.7144   -0.7456    0.0000 H   0  0  0  0  0  0  0  0  0  0  0  0
    4.5364    2.3550    0.0000 H   0  0  0  0  0  0  0  0  0  0  0  0
    3.6054    1.9146    0.0000 H   0  0  0  0  0  0  0  0  0  0  0  0
    6.9481    0.1534    0.0000 H   0  0  0  0  0  0  0  0  0  0  0  0
    6.5490    0.9198    0.0000 H   0  0  0  0  0  0  0  0  0  0  0  0
    5.9004   -1.2233    0.0000 H   0  0  0  0  0  0  0  0  0  0  0  0
    6.6893   -0.8125    0.0000 H   0  0  0  0  0  0  0  0  0  0  0  0
    3.0391    1.3970    0.0000 H   0  0  0  0  0  0  0  0  0  0  0  0
    2.1962    1.6386    0.0000 H   0  0  0  0  0  0  0  0  0  0  0  0
    1.9546    0.7958    0.0000 H   0  0  0  0  0  0  0  0  0  0  0  0
    1.8817    0.6396    0.0000 H   0  0  0  0  0  0  0  0  0  0  0  0
    1.3914   -0.0873    0.0000 H   0  0  0  0  0  0  0  0  0  0  0  0
    2.1183   -0.5776    0.0000 H   0  0  0  0  0  0  0  0  0  0  0  0
    2.9058   -1.8178    0.0000 H   0  0  0  0  0  0  0  0  0  0  0  0
    3.6328   -2.3082    0.0000 H   0  0  0  0  0  0  0  0  0  0  0  0
    4.1231   -1.5812    0.0000 H   0  0  0  0  0  0  0  0  0  0  0  0
    2.4382   -1.8226    0.0000 H   0  0  0  0  0  0  0  0  0  0  0  0
  1  5  1  0  0  0  0
  1 29  1  0  0  0  0
  2  3  1  0  0  0  0
  2  5  1  0  0  0  0
  2  9  1  0  0  0  0
  2 10  1  0  0  0  0
  3  6  1  0  0  0  0
  3  7  1  0  0  0  0
  3 12  1  0  0  0  0
  4  5  1  0  0  0  0
  4  6  1  0  0  0  0
  4  8  1  0  0  0  0
  4 13  1  0  0  0  0
  5 11  1  0  0  0  0
  6 14  1  0  0  0  0
  6 15  1  0  0  0  0
  7  8  1  0  0  0  0
  7 16  1  0  0  0  0
  7 17  1  0  0  0  0
  8 18  1  0  0  0  0
  8 19  1  0  0  0  0
  9 20  1  0  0  0  0
  9 21  1  0  0  0  0
  9 22  1  0  0  0  0
 10 23  1  0  0  0  0
 10 24  1  0  0  0  0
 10 25  1  0  0  0  0
 11 26  1  0  0  0  0
 11 27  1  0  0  0  0
 11 28  1  0  0  0  0
M  END
> <PUBCHEM_COMPOUND_CID>
101680

> <PUBCHEM_COMPOUND_CANONICALIZED>
1

> <PUBCHEM_CACTVS_COMPLEXITY>
185

> <PUBCHEM_CACTVS_HBOND_ACCEPTOR>
1

> <PUBCHEM_CACTVS_HBOND_DONOR>
1

> <PUBCHEM_CACTVS_ROTATABLE_BOND>
0

> <PUBCHEM_CACTVS_SUBSKEYS>
AAADceBwIAAAAAAAAAAAAAAAAAAAAYMAAAAwAAAAAAAAAAAAAAAAGgAACAAAD0SAgAACAAAAAgAAAAAAAAAAAAAAAAAAAAAAAAAAAAIAAAAAQAAEAAAAAAGAwPAPgAAAAAAAAAAAAAYAADAAAYAADAAAAA==

> <PUBCHEM_IUPAC_OPENEYE_NAME>
2,3,3-trimethylnorbornan-2-ol

> <PUBCHEM_IUPAC_CAS_NAME>
2,3,3-trimethyl-2-bicyclo[2.2.1]heptanol

> <PUBCHEM_IUPAC_NAME_MARKUP>
2,3,3-trimethylbicyclo[2.2.1]heptan-2-ol

> <PUBCHEM_IUPAC_NAME>
2,3,3-trimethylbicyclo[2.2.1]heptan-2-ol

> <PUBCHEM_IUPAC_SYSTEMATIC_NAME>
2,3,3-trimethylbicyclo[2.2.1]heptan-2-ol

> <PUBCHEM_IUPAC_TRADITIONAL_NAME>
2,3,3-trimethylnorbornan-2-ol

> <PUBCHEM_IUPAC_INCHI>
InChI=1S/C10H18O/c1-9(2)7-4-5-8(6-7)10(9,3)11/h7-8,11H,4-6H2,1-3H3

> <PUBCHEM_IUPAC_INCHIKEY>
PXRCIOIWVGAZEP-UHFFFAOYSA-N

> <PUBCHEM_XLOGP3_AA>
2.3

> <PUBCHEM_EXACT_MASS>
154.135765193

> <PUBCHEM_MOLECULAR_FORMULA>
C10H18O

> <PUBCHEM_MOLECULAR_WEIGHT>
154.25

> <PUBCHEM_OPENEYE_CAN_SMILES>
CC1(C2CCC(C2)C1(C)O)C

> <PUBCHEM_OPENEYE_ISO_SMILES>
CC1(C2CCC(C2)C1(C)O)C

> <PUBCHEM_CACTVS_TPSA>
20.2

> <PUBCHEM_MONOISOTOPIC_WEIGHT>
154.135765193

> <PUBCHEM_TOTAL_CHARGE>
0

> <PUBCHEM_HEAVY_ATOM_COUNT>
11

> <PUBCHEM_ATOM_DEF_STEREO_COUNT>
0

> <PUBCHEM_ATOM_UDEF_STEREO_COUNT>
3

> <PUBCHEM_BOND_DEF_STEREO_COUNT>
0

> <PUBCHEM_BOND_UDEF_STEREO_COUNT>
0

> <PUBCHEM_ISOTOPIC_ATOM_COUNT>
0

> <PUBCHEM_COMPONENT_COUNT>
1

> <PUBCHEM_CACTVS_TAUTO_COUNT>
-1

> <PUBCHEM_COORDINATE_TYPE>
1
5
255

> <PUBCHEM_BONDANNOTATIONS>
5  1  3
3  7  3
4  8  3

$$$$
