13556556
  -OEChem-02132300352D

 47 49  0     1  0  0  0  0  0999 V2000
    5.7024   -1.0173    0.0000 O   0  0  0  0  0  0  0  0  0  0  0  0
    5.5685    0.4827    0.0000 O   0  0  0  0  0  0  0  0  0  0  0  0
    5.5685   -3.5173    0.0000 O   0  0  0  0  0  0  0  0  0  0  0  0
    3.2024   -0.1513    0.0000 N   0  0  0  0  0  0  0  0  0  0  0  0
    2.8660    1.4314    0.0000 N   0  0  0  0  0  0  0  0  0  0  0  0
    4.7024   -1.0173    0.0000 C   0  0  3  0  0  0  0  0  0  0  0  0
    4.7024   -2.0173    0.0000 C   0  0  0  0  0  0  0  0  0  0  0  0
    3.7024   -1.0173    0.0000 C   0  0  0  0  0  0  0  0  0  0  0  0
    4.7024   -0.0173    0.0000 C   0  0  0  0  0  0  0  0  0  0  0  0
    5.7024   -2.0173    0.0000 C   0  0  0  0  0  0  0  0  0  0  0  0
    3.7024   -2.0173    0.0000 C   0  0  0  0  0  0  0  0  0  0  0  0
    4.7024   -3.0173    0.0000 C   0  0  0  0  0  0  0  0  0  0  0  0
    2.2079   -0.0468    0.0000 C   0  0  0  0  0  0  0  0  0  0  0  0
    3.6092    0.7622    0.0000 C   0  0  0  0  0  0  0  0  0  0  0  0
    5.5685    1.4827    0.0000 C   0  0  0  0  0  0  0  0  0  0  0  0
    6.4345    1.9827    0.0000 C   0  0  0  0  0  0  0  0  0  0  0  0
    2.0000    0.9314    0.0000 C   0  0  0  0  0  0  0  0  0  0  0  0
    4.7024    1.9827    0.0000 C   0  0  0  0  0  0  0  0  0  0  0  0
    6.4345    2.9827    0.0000 C   0  0  0  0  0  0  0  0  0  0  0  0
    7.3284    1.4480    0.0000 C   0  0  0  0  0  0  0  0  0  0  0  0
    4.7024    2.9827    0.0000 C   0  0  0  0  0  0  0  0  0  0  0  0
    5.5685    3.4827    0.0000 C   0  0  0  0  0  0  0  0  0  0  0  0
    7.3284    3.5173    0.0000 C   0  0  0  0  0  0  0  0  0  0  0  0
    8.2345    1.9618    0.0000 C   0  0  0  0  0  0  0  0  0  0  0  0
    8.2345    3.0035    0.0000 C   0  0  0  0  0  0  0  0  0  0  0  0
    3.1198   -1.2294    0.0000 H   0  0  0  0  0  0  0  0  0  0  0  0
    3.8101   -1.6279    0.0000 H   0  0  0  0  0  0  0  0  0  0  0  0
    4.4904    0.5653    0.0000 H   0  0  0  0  0  0  0  0  0  0  0  0
    4.0918   -0.1250    0.0000 H   0  0  0  0  0  0  0  0  0  0  0  0
    5.7024   -2.6373    0.0000 H   0  0  0  0  0  0  0  0  0  0  0  0
    6.3224   -2.0173    0.0000 H   0  0  0  0  0  0  0  0  0  0  0  0
    5.7024   -1.3973    0.0000 H   0  0  0  0  0  0  0  0  0  0  0  0
    3.7024   -1.3973    0.0000 H   0  0  0  0  0  0  0  0  0  0  0  0
    3.0824   -2.0173    0.0000 H   0  0  0  0  0  0  0  0  0  0  0  0
    3.7024   -2.6373    0.0000 H   0  0  0  0  0  0  0  0  0  0  0  0
    4.1655   -3.3273    0.0000 H   0  0  0  0  0  0  0  0  0  0  0  0
    6.0124   -0.4804    0.0000 H   0  0  0  0  0  0  0  0  0  0  0  0
    1.7930   -0.5075    0.0000 H   0  0  0  0  0  0  0  0  0  0  0  0
    4.2156    0.8911    0.0000 H   0  0  0  0  0  0  0  0  0  0  0  0
    1.4336    1.1836    0.0000 H   0  0  0  0  0  0  0  0  0  0  0  0
    4.1655    1.6727    0.0000 H   0  0  0  0  0  0  0  0  0  0  0  0
    7.3213    0.8280    0.0000 H   0  0  0  0  0  0  0  0  0  0  0  0
    4.1655    3.2927    0.0000 H   0  0  0  0  0  0  0  0  0  0  0  0
    5.5685    4.1027    0.0000 H   0  0  0  0  0  0  0  0  0  0  0  0
    7.3213    4.1373    0.0000 H   0  0  0  0  0  0  0  0  0  0  0  0
    8.7702    1.6498    0.0000 H   0  0  0  0  0  0  0  0  0  0  0  0
    8.7702    3.3156    0.0000 H   0  0  0  0  0  0  0  0  0  0  0  0
  1  6  1  0  0  0  0
  1 37  1  0  0  0  0
  2  9  1  0  0  0  0
  2 15  1  0  0  0  0
  3 12  2  0  0  0  0
  4  8  1  0  0  0  0
  4 13  1  0  0  0  0
  4 14  1  0  0  0  0
  5 14  2  0  0  0  0
  5 17  1  0  0  0  0
  6  7  1  0  0  0  0
  6  8  1  0  0  0  0
  6  9  1  0  0  0  0
  7 10  1  0  0  0  0
  7 11  1  0  0  0  0
  7 12  1  0  0  0  0
  8 26  1  0  0  0  0
  8 27  1  0  0  0  0
  9 28  1  0  0  0  0
  9 29  1  0  0  0  0
 10 30  1  0  0  0  0
 10 31  1  0  0  0  0
 10 32  1  0  0  0  0
 11 33  1  0  0  0  0
 11 34  1  0  0  0  0
 11 35  1  0  0  0  0
 12 36  1  0  0  0  0
 13 17  2  0  0  0  0
 13 38  1  0  0  0  0
 14 39  1  0  0  0  0
 15 16  1  0  0  0  0
 15 18  2  0  0  0  0
 16 19  1  0  0  0  0
 16 20  2  0  0  0  0
 17 40  1  0  0  0  0
 18 21  1  0  0  0  0
 18 41  1  0  0  0  0
 19 22  1  0  0  0  0
 19 23  2  0  0  0  0
 20 24  1  0  0  0  0
 20 42  1  0  0  0  0
 21 22  2  0  0  0  0
 21 43  1  0  0  0  0
 22 44  1  0  0  0  0
 23 25  1  0  0  0  0
 23 45  1  0  0  0  0
 24 25  2  0  0  0  0
 24 46  1  0  0  0  0
 25 47  1  0  0  0  0
M  END
> <PUBCHEM_COMPOUND_CID>
13556556

> <PUBCHEM_COMPOUND_CANONICALIZED>
1

> <PUBCHEM_CACTVS_COMPLEXITY>
456

> <PUBCHEM_CACTVS_HBOND_ACCEPTOR>
4

> <PUBCHEM_CACTVS_HBOND_DONOR>
1

> <PUBCHEM_CACTVS_ROTATABLE_BOND>
7

> <PUBCHEM_CACTVS_SUBSKEYS>
AAADceB7MAAAAAAAAAAAAAAAAAAAAWAAAAAwYAAAAAAAAADB1AAAHgAACAAADkThmgY/ltcMFgCoAjh35AACiC0xMqAJyAEeOIiPbjaEuRqWeCCu4BObqCeGwLAPgAABAAAYAAAAAAIAADAAAAAAAAAAAA==

> <PUBCHEM_IUPAC_OPENEYE_NAME>
3-hydroxy-3-(imidazol-1-ylmethyl)-2,2-dimethyl-4-(1-naphthyloxy)butanal

> <PUBCHEM_IUPAC_CAS_NAME>
3-hydroxy-3-(1-imidazolylmethyl)-2,2-dimethyl-4-(1-naphthalenyloxy)butanal

> <PUBCHEM_IUPAC_NAME_MARKUP>
3-hydroxy-3-(imidazol-1-ylmethyl)-2,2-dimethyl-4-naphthalen-1-yloxybutanal

> <PUBCHEM_IUPAC_NAME>
3-hydroxy-3-(imidazol-1-ylmethyl)-2,2-dimethyl-4-naphthalen-1-yloxybutanal

> <PUBCHEM_IUPAC_SYSTEMATIC_NAME>
3-(imidazol-1-ylmethyl)-2,2-dimethyl-4-naphthalen-1-yloxy-3-oxidanyl-butanal

> <PUBCHEM_IUPAC_TRADITIONAL_NAME>
3-hydroxy-3-(imidazol-1-ylmethyl)-2,2-dimethyl-4-(1-naphthoxy)butyraldehyde

> <PUBCHEM_IUPAC_INCHI>
InChI=1S/C20H22N2O3/c1-19(2,13-23)20(24,12-22-11-10-21-15-22)14-25-18-9-5-7-16-6-3-4-8-17(16)18/h3-11,13,15,24H,12,14H2,1-2H3

> <PUBCHEM_IUPAC_INCHIKEY>
KDGXBQDTTZAZND-UHFFFAOYSA-N

> <PUBCHEM_XLOGP3_AA>
2.4

> <PUBCHEM_EXACT_MASS>
338.16304257

> <PUBCHEM_MOLECULAR_FORMULA>
C20H22N2O3

> <PUBCHEM_MOLECULAR_WEIGHT>
338.4

> <PUBCHEM_OPENEYE_CAN_SMILES>
CC(C)(C=O)C(CN1C=CN=C1)(COC2=CC=CC3=CC=CC=C32)O

> <PUBCHEM_OPENEYE_ISO_SMILES>
CC(C)(C=O)C(CN1C=CN=C1)(COC2=CC=CC3=CC=CC=C32)O

> <PUBCHEM_CACTVS_TPSA>
64.4

> <PUBCHEM_MONOISOTOPIC_WEIGHT>
338.16304257

> <PUBCHEM_TOTAL_CHARGE>
0

> <PUBCHEM_HEAVY_ATOM_COUNT>
25

> <PUBCHEM_ATOM_DEF_STEREO_COUNT>
0

> <PUBCHEM_ATOM_UDEF_STEREO_COUNT>
1

> <PUBCHEM_BOND_DEF_STEREO_COUNT>
0

> <PUBCHEM_BOND_UDEF_STEREO_COUNT>
0

> <PUBCHEM_ISOTOPIC_ATOM_COUNT>
0

> <PUBCHEM_COMPONENT_COUNT>
1

> <PUBCHEM_CACTVS_TAUTO_COUNT>
-1

> <PUBCHEM_COORDINATE_TYPE>
1
5
255

> <PUBCHEM_BONDANNOTATIONS>
6  1  3
13  17  8
15  16  8
15  18  8
16  19  8
16  20  8
18  21  8
19  22  8
19  23  8
20  24  8
21  22  8
23  25  8
24  25  8
4  13  8
4  14  8
5  14  8
5  17  8

$$$$
