16133920
  -OEChem-02092319242D

382412  0     1  0  0  0  0  0999 V2000
    5.3529  -48.0000    0.0000 O   0  0  0  0  0  0  0  0  0  0  0  0
    3.8235  -47.8000    0.0000 O   0  0  0  0  0  0  0  0  0  0  0  0
    6.5000  -38.1500    0.0000 O   0  0  0  0  0  0  0  0  0  0  0  0
    1.6250  -36.3500    0.0000 O   0  0  0  0  0  0  0  0  0  0  0  0
   10.8333  -37.8000    0.0000 O   0  0  0  0  0  0  0  0  0  0  0  0
    7.3125  -50.3500    0.0000 O   0  0  0  0  0  0  0  0  0  0  0  0
    8.9375  -50.1500    0.0000 O   0  0  0  0  0  0  0  0  0  0  0  0
   22.1765  -47.8000    0.0000 O   0  0  0  0  0  0  0  0  0  0  0  0
    9.7500  -32.3500    0.0000 O   0  0  0  0  0  0  0  0  0  0  0  0
   14.6250  -36.3500    0.0000 O   0  0  0  0  0  0  0  0  0  0  0  0
   19.5000  -38.1500    0.0000 O   0  0  0  0  0  0  0  0  0  0  0  0
    2.1667  -40.3500    0.0000 O   0  0  0  0  0  0  0  0  0  0  0  0
   23.8333  -37.8000    0.0000 O   0  0  0  0  0  0  0  0  0  0  0  0
   16.0588  -47.8000    0.0000 O   0  0  0  0  0  0  0  0  0  0  0  0
   17.5882  -48.0000    0.0000 O   0  0  0  0  0  0  0  0  0  0  0  0
   21.9375  -50.1500    0.0000 O   0  0  0  0  0  0  0  0  0  0  0  0
   22.7500  -32.3500    0.0000 O   0  0  0  0  0  0  0  0  0  0  0  0
    8.4118  -48.1500    0.0000 O   0  0  0  0  0  0  0  0  0  0  0  0
    1.0833  -30.3500    0.0000 O   0  0  0  0  0  0  0  0  0  0  0  0
    3.9000  -42.1500    0.0000 O   0  0  0  0  0  0  0  0  0  0  0  0
   10.5625  -49.8000    0.0000 O   0  0  0  0  0  0  0  0  0  0  0  0
   15.1667  -40.3500    0.0000 O   0  0  0  0  0  0  0  0  0  0  0  0
    9.1000  -42.0000    0.0000 O   0  0  0  0  0  0  0  0  0  0  0  0
   11.4706  -48.0000    0.0000 O   0  0  0  0  0  0  0  0  0  0  0  0
   20.6471  -48.1500    0.0000 O   0  0  0  0  0  0  0  0  0  0  0  0
   14.0833  -30.3500    0.0000 O   0  0  0  0  0  0  0  0  0  0  0  0
   16.9000  -42.1500    0.0000 O   0  0  0  0  0  0  0  0  0  0  0  0
   23.5625  -49.8000    0.0000 O   0  0  0  0  0  0  0  0  0  0  0  0
   22.1000  -42.0000    0.0000 O   0  0  0  0  0  0  0  0  0  0  0  0
   25.2353  -48.3500    0.0000 O   0  0  0  0  0  0  0  0  0  0  0  0
   11.9167  -32.1500    0.0000 O   0  0  0  0  0  0  0  0  0  0  0  0
    1.0833  -44.3500    0.0000 O   0  0  0  0  0  0  0  0  0  0  0  0
   24.9167  -32.1500    0.0000 O   0  0  0  0  0  0  0  0  0  0  0  0
    3.2500  -30.1500    0.0000 O   0  0  0  0  0  0  0  0  0  0  0  0
   14.0833  -44.3500    0.0000 O   0  0  0  0  0  0  0  0  0  0  0  0
   16.2500  -30.1500    0.0000 O   0  0  0  0  0  0  0  0  0  0  0  0
    5.4167  -29.8000    0.0000 O   0  0  0  0  0  0  0  0  0  0  0  0
    0.8125  -24.3500    0.0000 O   0  0  0  0  0  0  0  0  0  0  0  0
    8.1250  -33.8000    0.0000 O   0  0  0  0  0  0  0  0  0  0  0  0
    4.5000  -20.3500    0.0000 O   0  0  0  0  0  0  0  0  0  0  0  0
    0.6500  -18.3500    0.0000 O   0  0  0  0  0  0  0  0  0  0  0  0
    5.4167  -31.8000    0.0000 O   0  0  0  0  0  0  0  0  0  0  0  0
    1.6250   -6.3500    0.0000 O   0  0  0  0  0  0  0  0  0  0  0  0
   18.4167  -29.8000    0.0000 O   0  0  0  0  0  0  0  0  0  0  0  0
   14.6250   -6.3500    0.0000 O   0  0  0  0  0  0  0  0  0  0  0  0
   13.8125  -24.3500    0.0000 O   0  0  0  0  0  0  0  0  0  0  0  0
   21.1250  -33.8000    0.0000 O   0  0  0  0  0  0  0  0  0  0  0  0
   17.5000  -20.3500    0.0000 O   0  0  0  0  0  0  0  0  0  0  0  0
   13.6500  -18.3500    0.0000 O   0  0  0  0  0  0  0  0  0  0  0  0
    2.4375  -12.1500    0.0000 O   0  0  0  0  0  0  0  0  0  0  0  0
   18.4167  -31.8000    0.0000 O   0  0  0  0  0  0  0  0  0  0  0  0
    6.5000  -10.0000    0.0000 O   0  0  0  0  0  0  0  0  0  0  0  0
    3.9000   -8.1500    0.0000 O   0  0  0  0  0  0  0  0  0  0  0  0
   15.4375  -12.1500    0.0000 O   0  0  0  0  0  0  0  0  0  0  0  0
    4.0625  -49.8000    0.0000 O   0  0  0  0  0  0  0  0  0  0  0  0
    0.8125  -50.3500    0.0000 O   0  0  0  0  0  0  0  0  0  0  0  0
   19.5000  -10.0000    0.0000 O   0  0  0  0  0  0  0  0  0  0  0  0
    0.9286  -10.3500    0.0000 O   0  0  0  0  0  0  0  0  0  0  0  0
   16.9000   -8.1500    0.0000 O   0  0  0  0  0  0  0  0  0  0  0  0
   13.9286  -10.3500    0.0000 O   0  0  0  0  0  0  0  0  0  0  0  0
    3.5454  -52.1500    0.0000 O   0  0  0  0  0  0  0  0  0  0  0  0
   17.0625  -49.8000    0.0000 O   0  0  0  0  0  0  0  0  0  0  0  0
   13.8125  -50.3500    0.0000 O   0  0  0  0  0  0  0  0  0  0  0  0
    6.5000    0.0000    0.0000 O   0  0  0  0  0  0  0  0  0  0  0  0
   17.7273  -52.1500    0.0000 O   0  0  0  0  0  0  0  0  0  0  0  0
   19.5000    0.0000    0.0000 O   0  0  0  0  0  0  0  0  0  0  0  0
    4.0625  -15.8000    0.0000 O   0  0  0  0  0  0  0  0  0  0  0  0
    5.9583  -22.1500    0.0000 O   0  0  0  0  0  0  0  0  0  0  0  0
    1.5000  -20.1500    0.0000 O   0  0  0  0  0  0  0  0  0  0  0  0
    0.8125  -14.3500    0.0000 O   0  0  0  0  0  0  0  0  0  0  0  0
   17.0625  -15.8000    0.0000 O   0  0  0  0  0  0  0  0  0  0  0  0
   13.8125  -14.3500    0.0000 O   0  0  0  0  0  0  0  0  0  0  0  0
   18.9583  -22.1500    0.0000 O   0  0  0  0  0  0  0  0  0  0  0  0
    8.9375  -14.1500    0.0000 O   0  0  0  0  0  0  0  0  0  0  0  0
   14.5000  -20.1500    0.0000 O   0  0  0  0  0  0  0  0  0  0  0  0
    4.0625  -11.8000    0.0000 O   0  0  0  0  0  0  0  0  0  0  0  0
   21.9375  -14.1500    0.0000 O   0  0  0  0  0  0  0  0  0  0  0  0
   17.0625  -11.8000    0.0000 O   0  0  0  0  0  0  0  0  0  0  0  0
    8.9375  -24.1500    0.0000 O   0  0  0  0  0  0  0  0  0  0  0  0
    3.7917  -22.0000    0.0000 O   0  0  0  0  0  0  0  0  0  0  0  0
    8.1250  -22.0000    0.0000 O   0  0  0  0  0  0  0  0  0  0  0  0
    3.5000  -20.0000    0.0000 O   0  0  0  0  0  0  0  0  0  0  0  0
   21.9375  -24.1500    0.0000 O   0  0  0  0  0  0  0  0  0  0  0  0
   16.7917  -22.0000    0.0000 O   0  0  0  0  0  0  0  0  0  0  0  0
   21.1250  -22.0000    0.0000 O   0  0  0  0  0  0  0  0  0  0  0  0
   16.5000  -20.0000    0.0000 O   0  0  0  0  0  0  0  0  0  0  0  0
    6.5000   -4.1500    0.0000 O   0  0  0  0  0  0  0  0  0  0  0  0
   19.5000   -4.1500    0.0000 O   0  0  0  0  0  0  0  0  0  0  0  0
   12.5000  -20.3500    0.0000 O   0  0  0  0  0  0  0  0  0  0  0  0
   10.5000  -19.8000    0.0000 O   0  0  0  0  0  0  0  0  0  0  0  0
    9.7500  -18.0000    0.0000 O   0  0  0  0  0  0  0  0  0  0  0  0
    7.1500  -18.1500    0.0000 O   0  0  0  0  0  0  0  0  0  0  0  0
   25.5000  -20.3500    0.0000 O   0  0  0  0  0  0  0  0  0  0  0  0
   23.5000  -19.8000    0.0000 O   0  0  0  0  0  0  0  0  0  0  0  0
   22.7500  -18.0000    0.0000 O   0  0  0  0  0  0  0  0  0  0  0  0
   20.1500  -18.1500    0.0000 O   0  0  0  0  0  0  0  0  0  0  0  0
   11.3750  -21.8000    0.0000 O   0  0  0  0  0  0  0  0  0  0  0  0
    8.5000  -20.3500    0.0000 O   0  0  0  0  0  0  0  0  0  0  0  0
   24.3750  -21.8000    0.0000 O   0  0  0  0  0  0  0  0  0  0  0  0
   21.5000  -20.3500    0.0000 O   0  0  0  0  0  0  0  0  0  0  0  0
    8.3571  -10.3500    0.0000 O   0  0  0  0  0  0  0  0  0  0  0  0
   12.0714   -9.8000    0.0000 O   0  0  0  0  0  0  0  0  0  0  0  0
   21.3571  -10.3500    0.0000 O   0  0  0  0  0  0  0  0  0  0  0  0
   25.0714   -9.8000    0.0000 O   0  0  0  0  0  0  0  0  0  0  0  0
   10.5625  -11.8000    0.0000 O   0  0  0  0  0  0  0  0  0  0  0  0
   23.5625  -11.8000    0.0000 O   0  0  0  0  0  0  0  0  0  0  0  0
    5.4167  -43.8000    0.0000 C   0  0  2  0  0  0  0  0  0  0  0  0
    4.6429  -45.8000    0.0000 C   0  0  2  0  0  0  0  0  0  0  0  0
    9.7500  -44.3500    0.0000 C   0  0  0  0  0  0  0  0  0  0  0  0
    6.8824  -48.3500    0.0000 C   0  0  0  0  0  0  0  0  0  0  0  0
    6.5000  -41.8000    0.0000 C   0  0  0  0  0  0  0  0  0  0  0  0
    4.8750  -36.1500    0.0000 C   0  0  3  0  0  0  0  0  0  0  0  0
   11.3750  -34.0000    0.0000 C   0  0  3  0  0  0  0  0  0  0  0  0
   10.2143  -46.1500    0.0000 C   0  0  0  0  0  0  0  0  0  0  0  0
   11.3750  -36.0000    0.0000 C   0  0  3  0  0  0  0  0  0  0  0  0
    1.6250  -34.3500    0.0000 C   0  0  3  0  0  0  0  0  0  0  0  0
   18.4167  -43.8000    0.0000 C   0  0  2  0  0  0  0  0  0  0  0  0
   17.6429  -45.8000    0.0000 C   0  0  0  0  0  0  0  0  0  0  0  0
   11.7000  -42.3500    0.0000 C   0  0  0  0  0  0  0  0  0  0  0  0
    8.3571  -46.3500    0.0000 C   0  0  0  0  0  0  0  0  0  0  0  0
    2.1667  -38.3500    0.0000 C   0  0  3  0  0  0  0  0  0  0  0  0
    7.5833  -44.0000    0.0000 C   0  0  0  0  0  0  0  0  0  0  0  0
   19.1176  -48.3500    0.0000 C   0  0  2  0  0  0  0  0  0  0  0  0
    6.5000  -40.1500    0.0000 C   0  0  0  0  0  0  0  0  0  0  0  0
   17.8750  -36.1500    0.0000 C   0  0  3  0  0  0  0  0  0  0  0  0
   22.7500  -44.3500    0.0000 C   0  0  0  0  0  0  0  0  0  0  0  0
   24.3750  -34.0000    0.0000 C   0  0  3  0  0  0  0  0  0  0  0  0
   19.5000  -41.8000    0.0000 C   0  0  0  0  0  0  0  0  0  0  0  0
   24.3750  -36.0000    0.0000 C   0  0  3  0  0  0  0  0  0  0  0  0
    9.9412  -47.8000    0.0000 C   0  0  0  0  0  0  0  0  0  0  0  0
   14.6250  -34.3500    0.0000 C   0  0  3  0  0  0  0  0  0  0  0  0
   10.8333  -39.8000    0.0000 C   0  0  0  0  0  0  0  0  0  0  0  0
    1.0833  -32.3500    0.0000 C   0  0  0  0  0  0  0  0  0  0  0  0
   11.9167  -44.1500    0.0000 C   0  0  0  0  0  0  0  0  0  0  0  0
   23.2143  -46.1500    0.0000 C   0  0  0  0  0  0  0  0  0  0  0  0
   15.1667  -38.3500    0.0000 C   0  0  3  0  0  0  0  0  0  0  0  0
   21.3571  -46.3500    0.0000 C   0  0  0  0  0  0  0  0  0  0  0  0
   12.0714  -45.8000    0.0000 C   0  0  0  0  0  0  0  0  0  0  0  0
   24.7000  -42.3500    0.0000 C   0  0  0  0  0  0  0  0  0  0  0  0
   20.5833  -44.0000    0.0000 C   0  0  0  0  0  0  0  0  0  0  0  0
   19.5000  -40.1500    0.0000 C   0  0  0  0  0  0  0  0  0  0  0  0
   14.0833  -32.3500    0.0000 C   0  0  0  0  0  0  0  0  0  0  0  0
   23.8333  -39.8000    0.0000 C   0  0  0  0  0  0  0  0  0  0  0  0
   23.7059  -48.0000    0.0000 C   0  0  0  0  0  0  0  0  0  0  0  0
   24.9167  -44.1500    0.0000 C   0  0  0  0  0  0  0  0  0  0  0  0
   25.0714  -45.8000    0.0000 C   0  0  0  0  0  0  0  0  0  0  0  0
    9.7500  -30.3500    0.0000 C   0  0  0  0  0  0  0  0  0  0  0  0
    1.3000  -42.3500    0.0000 C   0  0  0  0  0  0  0  0  0  0  0  0
   10.8333  -27.8000    0.0000 C   0  0  0  0  0  0  0  0  0  0  0  0
   22.7500  -30.3500    0.0000 C   0  0  0  0  0  0  0  0  0  0  0  0
    2.1667  -28.3500    0.0000 C   0  0  0  0  0  0  0  0  0  0  0  0
    8.1250  -25.8000    0.0000 C   0  0  0  0  0  0  0  0  0  0  0  0
    4.8750  -26.1500    0.0000 C   0  0  0  0  0  0  0  0  0  0  0  0
   14.3000  -42.3500    0.0000 C   0  0  0  0  0  0  0  0  0  0  0  0
    2.4375  -24.1500    0.0000 C   0  0  0  0  0  0  0  0  0  0  0  0
   23.8333  -27.8000    0.0000 C   0  0  0  0  0  0  0  0  0  0  0  0
    3.2500  -44.1500    0.0000 C   0  0  0  0  0  0  0  0  0  0  0  0
   15.1667  -28.3500    0.0000 C   0  0  0  0  0  0  0  0  0  0  0  0
   11.9167  -30.1500    0.0000 C   0  0  0  0  0  0  0  0  0  0  0  0
   21.1250  -25.8000    0.0000 C   0  0  0  0  0  0  0  0  0  0  0  0
   17.8750  -26.1500    0.0000 C   0  0  0  0  0  0  0  0  0  0  0  0
    6.5000  -28.1500    0.0000 C   0  0  0  0  0  0  0  0  0  0  0  0
   15.4375  -24.1500    0.0000 C   0  0  0  0  0  0  0  0  0  0  0  0
   16.2500  -44.1500    0.0000 C   0  0  0  0  0  0  0  0  0  0  0  0
    4.0625  -23.8000    0.0000 C   0  0  0  0  0  0  0  0  0  0  0  0
    0.5417  -22.3500    0.0000 C   0  0  0  0  0  0  0  0  0  0  0  0
    7.5833  -32.0000    0.0000 C   0  0  0  0  0  0  0  0  0  0  0  0
   24.9167  -30.1500    0.0000 C   0  0  0  0  0  0  0  0  0  0  0  0
    7.5833  -30.0000    0.0000 C   0  0  0  0  0  0  0  0  0  0  0  0
    0.9286  -46.3500    0.0000 C   0  0  0  0  0  0  0  0  0  0  0  0
    2.7857  -46.1500    0.0000 C   0  0  0  0  0  0  0  0  0  0  0  0
   19.5000  -28.1500    0.0000 C   0  0  0  0  0  0  0  0  0  0  0  0
    1.6250  -22.1500    0.0000 C   0  0  0  0  0  0  0  0  0  0  0  0
    0.5000  -20.3500    0.0000 C   0  0  0  0  0  0  0  0  0  0  0  0
   17.0625  -23.8000    0.0000 C   0  0  0  0  0  0  0  0  0  0  0  0
   13.5417  -22.3500    0.0000 C   0  0  0  0  0  0  0  0  0  0  0  0
   20.5833  -32.0000    0.0000 C   0  0  0  0  0  0  0  0  0  0  0  0
   20.5833  -30.0000    0.0000 C   0  0  0  0  0  0  0  0  0  0  0  0
   13.9286  -46.3500    0.0000 C   0  0  0  0  0  0  0  0  0  0  0  0
   15.7857  -46.1500    0.0000 C   0  0  0  0  0  0  0  0  0  0  0  0
    2.2941  -48.1500    0.0000 C   0  0  0  0  0  0  0  0  0  0  0  0
    0.7647  -48.3500    0.0000 C   0  0  0  0  0  0  0  0  0  0  0  0
   14.6250  -22.1500    0.0000 C   0  0  0  0  0  0  0  0  0  0  0  0
   13.5000  -20.3500    0.0000 C   0  0  0  0  0  0  0  0  0  0  0  0
    6.5000   -7.8000    0.0000 C   0  0  3  0  0  0  0  0  0  0  0  0
    4.8750   -6.1500    0.0000 C   0  0  3  0  0  0  0  0  0  0  0  0
    2.7857  -10.1500    0.0000 C   0  0  3  0  0  0  0  0  0  0  0  0
   19.5000   -7.8000    0.0000 C   0  0  3  0  0  0  0  0  0  0  0  0
   17.8750   -6.1500    0.0000 C   0  0  3  0  0  0  0  0  0  0  0  0
    2.1667   -4.3500    0.0000 C   0  0  3  0  0  0  0  0  0  0  0  0
   15.7857  -10.1500    0.0000 C   0  0  3  0  0  0  0  0  0  0  0  0
    2.4375  -50.1500    0.0000 C   0  0  0  0  0  0  0  0  0  0  0  0
   15.1667   -4.3500    0.0000 C   0  0  3  0  0  0  0  0  0  0  0  0
    1.3000   -8.3500    0.0000 C   0  0  3  0  0  0  0  0  0  0  0  0
   14.3000   -8.3500    0.0000 C   0  0  3  0  0  0  0  0  0  0  0  0
   14.5294  -48.1500    0.0000 C   0  0  0  0  0  0  0  0  0  0  0  0
   13.0000  -48.3500    0.0000 C   0  0  0  0  0  0  0  0  0  0  0  0
   15.4375  -50.1500    0.0000 C   0  0  0  0  0  0  0  0  0  0  0  0
    3.2500   -2.3500    0.0000 C   0  0  0  0  0  0  0  0  0  0  0  0
   16.2500   -2.3500    0.0000 C   0  0  0  0  0  0  0  0  0  0  0  0
    4.5500  -18.0000    0.0000 C   0  0  0  0  0  0  0  0  0  0  0  0
    0.8125  -16.3500    0.0000 C   0  0  0  0  0  0  0  0  0  0  0  0
    5.6875  -16.0000    0.0000 C   0  0  0  0  0  0  0  0  0  0  0  0
   17.5500  -18.0000    0.0000 C   0  0  0  0  0  0  0  0  0  0  0  0
    2.4375  -14.1500    0.0000 C   0  0  0  0  0  0  0  0  0  0  0  0
   13.8125  -16.3500    0.0000 C   0  0  0  0  0  0  0  0  0  0  0  0
    4.0625  -13.8000    0.0000 C   0  0  0  0  0  0  0  0  0  0  0  0
    0.8125  -12.3500    0.0000 C   0  0  0  0  0  0  0  0  0  0  0  0
   18.6875  -16.0000    0.0000 C   0  0  0  0  0  0  0  0  0  0  0  0
   17.0625  -13.8000    0.0000 C   0  0  0  0  0  0  0  0  0  0  0  0
   15.4375  -14.1500    0.0000 C   0  0  0  0  0  0  0  0  0  0  0  0
    5.5000  -20.1500    0.0000 C   0  0  0  0  0  0  0  0  0  0  0  0
    1.9500  -18.1500    0.0000 C   0  0  0  0  0  0  0  0  0  0  0  0
   13.8125  -12.3500    0.0000 C   0  0  0  0  0  0  0  0  0  0  0  0
    7.3125  -12.3500    0.0000 C   0  0  0  0  0  0  0  0  0  0  0  0
    4.6429   -9.8000    0.0000 C   0  0  0  0  0  0  0  0  0  0  0  0
    5.8500  -18.3500    0.0000 C   0  0  0  0  0  0  0  0  0  0  0  0
   20.3125  -12.3500    0.0000 C   0  0  0  0  0  0  0  0  0  0  0  0
   17.6429   -9.8000    0.0000 C   0  0  0  0  0  0  0  0  0  0  0  0
    2.4375  -16.1500    0.0000 C   0  0  0  0  0  0  0  0  0  0  0  0
   18.5000  -20.1500    0.0000 C   0  0  0  0  0  0  0  0  0  0  0  0
   14.9500  -18.1500    0.0000 C   0  0  0  0  0  0  0  0  0  0  0  0
    7.0417  -21.8000    0.0000 C   0  0  0  0  0  0  0  0  0  0  0  0
    2.5000  -19.8000    0.0000 C   0  0  0  0  0  0  0  0  0  0  0  0
   18.8500  -18.3500    0.0000 C   0  0  0  0  0  0  0  0  0  0  0  0
    6.5000  -19.8000    0.0000 C   0  0  0  0  0  0  0  0  0  0  0  0
   15.4375  -16.1500    0.0000 C   0  0  0  0  0  0  0  0  0  0  0  0
    3.2500  -17.8000    0.0000 C   0  0  0  0  0  0  0  0  0  0  0  0
   20.0417  -21.8000    0.0000 C   0  0  0  0  0  0  0  0  0  0  0  0
   10.5625  -13.8000    0.0000 C   0  0  0  0  0  0  0  0  0  0  0  0
    5.6875  -12.0000    0.0000 C   0  0  0  0  0  0  0  0  0  0  0  0
   15.5000  -19.8000    0.0000 C   0  0  0  0  0  0  0  0  0  0  0  0
   19.5000  -19.8000    0.0000 C   0  0  0  0  0  0  0  0  0  0  0  0
   23.5625  -13.8000    0.0000 C   0  0  0  0  0  0  0  0  0  0  0  0
   18.6875  -12.0000    0.0000 C   0  0  0  0  0  0  0  0  0  0  0  0
    9.7500   -2.1500    0.0000 C   0  0  0  0  0  0  0  0  0  0  0  0
   16.2500  -17.8000    0.0000 C   0  0  0  0  0  0  0  0  0  0  0  0
   22.7500   -2.1500    0.0000 C   0  0  0  0  0  0  0  0  0  0  0  0
   10.5625  -15.8000    0.0000 C   0  0  0  0  0  0  0  0  0  0  0  0
   12.1875  -16.0000    0.0000 C   0  0  0  0  0  0  0  0  0  0  0  0
   10.8333   -3.8000    0.0000 C   0  0  0  0  0  0  0  0  0  0  0  0
    5.6875  -14.0000    0.0000 C   0  0  0  0  0  0  0  0  0  0  0  0
    7.3125  -14.3500    0.0000 C   0  0  0  0  0  0  0  0  0  0  0  0
   23.8333   -3.8000    0.0000 C   0  0  0  0  0  0  0  0  0  0  0  0
   23.5625  -15.8000    0.0000 C   0  0  0  0  0  0  0  0  0  0  0  0
   25.1875  -16.0000    0.0000 C   0  0  0  0  0  0  0  0  0  0  0  0
   18.6875  -14.0000    0.0000 C   0  0  0  0  0  0  0  0  0  0  0  0
   20.3125  -14.3500    0.0000 C   0  0  0  0  0  0  0  0  0  0  0  0
   12.3500  -18.1500    0.0000 C   0  0  0  0  0  0  0  0  0  0  0  0
   11.0500  -18.3500    0.0000 C   0  0  0  0  0  0  0  0  0  0  0  0
    8.9375  -16.1500    0.0000 C   0  0  0  0  0  0  0  0  0  0  0  0
    7.3125  -16.3500    0.0000 C   0  0  0  0  0  0  0  0  0  0  0  0
   25.3500  -18.1500    0.0000 C   0  0  0  0  0  0  0  0  0  0  0  0
   24.0500  -18.3500    0.0000 C   0  0  0  0  0  0  0  0  0  0  0  0
   21.9375  -16.1500    0.0000 C   0  0  0  0  0  0  0  0  0  0  0  0
   20.3125  -16.3500    0.0000 C   0  0  0  0  0  0  0  0  0  0  0  0
   11.3750   -6.0000    0.0000 C   0  0  0  0  0  0  0  0  0  0  0  0
    8.1250   -5.8000    0.0000 C   0  0  0  0  0  0  0  0  0  0  0  0
   11.5000  -20.0000    0.0000 C   0  0  0  0  0  0  0  0  0  0  0  0
    8.4500  -17.8000    0.0000 C   0  0  0  0  0  0  0  0  0  0  0  0
   24.3750   -6.0000    0.0000 C   0  0  0  0  0  0  0  0  0  0  0  0
   21.1250   -5.8000    0.0000 C   0  0  0  0  0  0  0  0  0  0  0  0
   24.5000  -20.0000    0.0000 C   0  0  0  0  0  0  0  0  0  0  0  0
   21.4500  -17.8000    0.0000 C   0  0  0  0  0  0  0  0  0  0  0  0
    9.1000   -8.0000    0.0000 C   0  0  0  0  0  0  0  0  0  0  0  0
   11.7000   -8.3500    0.0000 C   0  0  0  0  0  0  0  0  0  0  0  0
   22.1000   -8.0000    0.0000 C   0  0  0  0  0  0  0  0  0  0  0  0
   24.7000   -8.3500    0.0000 C   0  0  0  0  0  0  0  0  0  0  0  0
   10.2143  -10.1500    0.0000 C   0  0  0  0  0  0  0  0  0  0  0  0
   23.2143  -10.1500    0.0000 C   0  0  0  0  0  0  0  0  0  0  0  0
    6.5000  -46.0000    0.0000 H   0  0  0  0  0  0  0  0  0  0  0  0
    3.8766  -37.3422    0.0000 H   0  0  0  0  0  0  0  0  0  0  0  0
   12.8139  -33.4104    0.0000 H   0  0  0  0  0  0  0  0  0  0  0  0
   12.9135  -36.2265    0.0000 H   0  0  0  0  0  0  0  0  0  0  0  0
    0.0835  -34.5550    0.0000 H   0  0  0  0  0  0  0  0  0  0  0  0
   19.5000  -46.0000    0.0000 H   0  0  0  0  0  0  0  0  0  0  0  0
    0.6252  -38.5550    0.0000 H   0  0  0  0  0  0  0  0  0  0  0  0
    9.0229  -43.4119    0.0000 H   0  0  0  0  0  0  0  0  0  0  0  0
   16.8766  -37.3422    0.0000 H   0  0  0  0  0  0  0  0  0  0  0  0
   25.8139  -33.4104    0.0000 H   0  0  0  0  0  0  0  0  0  0  0  0
   25.9135  -36.2265    0.0000 H   0  0  0  0  0  0  0  0  0  0  0  0
    5.6875  -50.0000    0.0000 H   0  0  0  0  0  0  0  0  0  0  0  0
   13.0835  -34.5550    0.0000 H   0  0  0  0  0  0  0  0  0  0  0  0
   -0.3266  -31.6941    0.0000 H   0  0  0  0  0  0  0  0  0  0  0  0
    2.6248  -32.1450    0.0000 H   0  0  0  0  0  0  0  0  0  0  0  0
   13.4629  -43.9845    0.0000 H   0  0  0  0  0  0  0  0  0  0  0  0
   13.6252  -38.5550    0.0000 H   0  0  0  0  0  0  0  0  0  0  0  0
    8.2727  -52.0000    0.0000 H   0  0  0  0  0  0  0  0  0  0  0  0
   10.6364  -52.3500    0.0000 H   0  0  0  0  0  0  0  0  0  0  0  0
   22.0229  -43.4119    0.0000 H   0  0  0  0  0  0  0  0  0  0  0  0
   12.6734  -31.6941    0.0000 H   0  0  0  0  0  0  0  0  0  0  0  0
   15.6248  -32.1450    0.0000 H   0  0  0  0  0  0  0  0  0  0  0  0
   18.6875  -50.0000    0.0000 H   0  0  0  0  0  0  0  0  0  0  0  0
   20.3125  -50.3500    0.0000 H   0  0  0  0  0  0  0  0  0  0  0  0
   22.4545  -52.0000    0.0000 H   0  0  0  0  0  0  0  0  0  0  0  0
   26.4629  -43.9845    0.0000 H   0  0  0  0  0  0  0  0  0  0  0  0
   13.0000  -52.1500    0.0000 H   0  0  0  0  0  0  0  0  0  0  0  0
   12.1875  -50.0000    0.0000 H   0  0  0  0  0  0  0  0  0  0  0  0
   24.8182  -52.3500    0.0000 H   0  0  0  0  0  0  0  0  0  0  0  0
   25.1875  -50.0000    0.0000 H   0  0  0  0  0  0  0  0  0  0  0  0
   13.3678  -30.7089    0.0000 H   0  0  0  0  0  0  0  0  0  0  0  0
    5.2964  -22.8536    0.0000 H   0  0  0  0  0  0  0  0  0  0  0  0
   26.3678  -30.7089    0.0000 H   0  0  0  0  0  0  0  0  0  0  0  0
   -0.4737  -45.6778    0.0000 H   0  0  0  0  0  0  0  0  0  0  0  0
    4.2982  -46.5114    0.0000 H   0  0  0  0  0  0  0  0  0  0  0  0
   18.2964  -22.8536    0.0000 H   0  0  0  0  0  0  0  0  0  0  0  0
   12.6661  -45.4421    0.0000 H   0  0  0  0  0  0  0  0  0  0  0  0
   17.2213  -46.7477    0.0000 H   0  0  0  0  0  0  0  0  0  0  0  0
    7.9389   -7.2104    0.0000 H   0  0  0  0  0  0  0  0  0  0  0  0
    3.3744   -6.5577    0.0000 H   0  0  0  0  0  0  0  0  0  0  0  0
    4.0783  -11.0146    0.0000 H   0  0  0  0  0  0  0  0  0  0  0  0
   20.9389   -7.2104    0.0000 H   0  0  0  0  0  0  0  0  0  0  0  0
   16.3744   -6.5577    0.0000 H   0  0  0  0  0  0  0  0  0  0  0  0
    0.7228   -3.7726    0.0000 H   0  0  0  0  0  0  0  0  0  0  0  0
   17.0783  -11.0146    0.0000 H   0  0  0  0  0  0  0  0  0  0  0  0
    3.2500  -32.1500    0.0000 H   0  0  0  0  0  0  0  0  0  0  0  0
   13.7228   -3.7726    0.0000 H   0  0  0  0  0  0  0  0  0  0  0  0
   -0.2320   -8.0833    0.0000 H   0  0  0  0  0  0  0  0  0  0  0  0
    1.6250  -26.3500    0.0000 H   0  0  0  0  0  0  0  0  0  0  0  0
   12.7680   -8.0833    0.0000 H   0  0  0  0  0  0  0  0  0  0  0  0
    8.1250  -35.8000    0.0000 H   0  0  0  0  0  0  0  0  0  0  0  0
    4.8750  -34.1500    0.0000 H   0  0  0  0  0  0  0  0  0  0  0  0
   16.2500  -32.1500    0.0000 H   0  0  0  0  0  0  0  0  0  0  0  0
    2.8624   -0.8440    0.0000 H   0  0  0  0  0  0  0  0  0  0  0  0
    4.4185   -3.3761    0.0000 H   0  0  0  0  0  0  0  0  0  0  0  0
   14.6250  -26.3500    0.0000 H   0  0  0  0  0  0  0  0  0  0  0  0
   15.8624   -0.8440    0.0000 H   0  0  0  0  0  0  0  0  0  0  0  0
   17.4185   -3.3761    0.0000 H   0  0  0  0  0  0  0  0  0  0  0  0
   21.1250  -35.8000    0.0000 H   0  0  0  0  0  0  0  0  0  0  0  0
   17.8750  -34.1500    0.0000 H   0  0  0  0  0  0  0  0  0  0  0  0
    5.9091  -51.8000    0.0000 H   0  0  0  0  0  0  0  0  0  0  0  0
    1.1818  -52.3500    0.0000 H   0  0  0  0  0  0  0  0  0  0  0  0
    6.5000  -54.3500    0.0000 H   0  0  0  0  0  0  0  0  0  0  0  0
   20.0909  -51.8000    0.0000 H   0  0  0  0  0  0  0  0  0  0  0  0
   15.3636  -52.3500    0.0000 H   0  0  0  0  0  0  0  0  0  0  0  0
   19.5000  -54.3500    0.0000 H   0  0  0  0  0  0  0  0  0  0  0  0
    7.3585  -17.9725    0.0000 H   0  0  0  0  0  0  0  0  0  0  0  0
    0.9230  -16.5027    0.0000 H   0  0  0  0  0  0  0  0  0  0  0  0
   20.3585  -17.9725    0.0000 H   0  0  0  0  0  0  0  0  0  0  0  0
   13.9230  -16.5027    0.0000 H   0  0  0  0  0  0  0  0  0  0  0  0
    7.3125  -24.3500    0.0000 H   0  0  0  0  0  0  0  0  0  0  0  0
    2.7083  -21.8000    0.0000 H   0  0  0  0  0  0  0  0  0  0  0  0
   20.3125  -24.3500    0.0000 H   0  0  0  0  0  0  0  0  0  0  0  0
    9.0144  -15.9467    0.0000 H   0  0  0  0  0  0  0  0  0  0  0  0
   13.6451  -15.4583    0.0000 H   0  0  0  0  0  0  0  0  0  0  0  0
   15.7083  -21.8000    0.0000 H   0  0  0  0  0  0  0  0  0  0  0  0
    4.2031  -14.4633    0.0000 H   0  0  0  0  0  0  0  0  0  0  0  0
    6.0933  -15.3153    0.0000 H   0  0  0  0  0  0  0  0  0  0  0  0
   22.0144  -15.9467    0.0000 H   0  0  0  0  0  0  0  0  0  0  0  0
   26.6451  -15.4583    0.0000 H   0  0  0  0  0  0  0  0  0  0  0  0
   17.2031  -14.4633    0.0000 H   0  0  0  0  0  0  0  0  0  0  0  0
   19.0933  -15.3153    0.0000 H   0  0  0  0  0  0  0  0  0  0  0  0
   11.3750  -26.0000    0.0000 H   0  0  0  0  0  0  0  0  0  0  0  0
    5.6875  -24.0000    0.0000 H   0  0  0  0  0  0  0  0  0  0  0  0
   10.5625  -23.8000    0.0000 H   0  0  0  0  0  0  0  0  0  0  0  0
    4.8750  -22.3500    0.0000 H   0  0  0  0  0  0  0  0  0  0  0  0
   24.3750  -26.0000    0.0000 H   0  0  0  0  0  0  0  0  0  0  0  0
   18.6875  -24.0000    0.0000 H   0  0  0  0  0  0  0  0  0  0  0  0
   23.5625  -23.8000    0.0000 H   0  0  0  0  0  0  0  0  0  0  0  0
   17.8750  -22.3500    0.0000 H   0  0  0  0  0  0  0  0  0  0  0  0
   12.9022   -5.7072    0.0000 H   0  0  0  0  0  0  0  0  0  0  0  0
    6.6217   -5.4021    0.0000 H   0  0  0  0  0  0  0  0  0  0  0  0
   25.9022   -5.7072    0.0000 H   0  0  0  0  0  0  0  0  0  0  0  0
   19.6217   -5.4021    0.0000 H   0  0  0  0  0  0  0  0  0  0  0  0
   12.4583  -22.0000    0.0000 H   0  0  0  0  0  0  0  0  0  0  0  0
   10.2917  -22.1500    0.0000 H   0  0  0  0  0  0  0  0  0  0  0  0
    9.5000  -20.1500    0.0000 H   0  0  0  0  0  0  0  0  0  0  0  0
    7.5000  -20.0000    0.0000 H   0  0  0  0  0  0  0  0  0  0  0  0
   25.4583  -22.0000    0.0000 H   0  0  0  0  0  0  0  0  0  0  0  0
   23.2917  -22.1500    0.0000 H   0  0  0  0  0  0  0  0  0  0  0  0
   22.5000  -20.1500    0.0000 H   0  0  0  0  0  0  0  0  0  0  0  0
   20.5000  -20.0000    0.0000 H   0  0  0  0  0  0  0  0  0  0  0  0
   12.1875  -24.0000    0.0000 H   0  0  0  0  0  0  0  0  0  0  0  0
    9.2083  -22.3500    0.0000 H   0  0  0  0  0  0  0  0  0  0  0  0
   25.1875  -24.0000    0.0000 H   0  0  0  0  0  0  0  0  0  0  0  0
   22.2083  -22.3500    0.0000 H   0  0  0  0  0  0  0  0  0  0  0  0
    8.9375  -12.1500    0.0000 H   0  0  0  0  0  0  0  0  0  0  0  0
   12.1875  -12.0000    0.0000 H   0  0  0  0  0  0  0  0  0  0  0  0
   21.9375  -12.1500    0.0000 H   0  0  0  0  0  0  0  0  0  0  0  0
   25.1875  -12.0000    0.0000 H   0  0  0  0  0  0  0  0  0  0  0  0
   12.1875  -14.0000    0.0000 H   0  0  0  0  0  0  0  0  0  0  0  0
   25.1875  -14.0000    0.0000 H   0  0  0  0  0  0  0  0  0  0  0  0
  1108  1  0  0  0  0
  1114  1  0  0  0  0
  2108  1  0  0  0  0
  2282  1  0  0  0  0
  3112  1  0  0  0  0
  3124  1  0  0  0  0
  4116  1  0  0  0  0
  4121  1  0  0  0  0
  5115  1  0  0  0  0
  5132  1  0  0  0  0
  6110  1  0  0  0  0
  6288  1  0  0  0  0
  7110  1  0  0  0  0
  7289  1  0  0  0  0
  8123  1  0  0  0  0
  8135  1  0  0  0  0
  9113  1  0  0  0  0
  9147  1  0  0  0  0
 10131  1  0  0  0  0
 10136  1  0  0  0  0
 11125  1  0  0  0  0
 11141  1  0  0  0  0
 12121  1  0  0  0  0
 12148  1  0  0  0  0
 13129  1  0  0  0  0
 13143  1  0  0  0  0
 14118  1  0  0  0  0
 14293  1  0  0  0  0
 15118  1  0  0  0  0
 15294  1  0  0  0  0
 16123  1  0  0  0  0
 16295  1  0  0  0  0
 17127  1  0  0  0  0
 17150  1  0  0  0  0
 18120  2  0  0  0  0
 19133  1  0  0  0  0
 19151  1  0  0  0  0
 20124  2  0  0  0  0
 21130  1  0  0  0  0
 21297  1  0  0  0  0
 22136  1  0  0  0  0
 22154  1  0  0  0  0
 23132  2  0  0  0  0
 24138  1  0  0  0  0
 24298  1  0  0  0  0
 25137  2  0  0  0  0
 26142  1  0  0  0  0
 26158  1  0  0  0  0
 27141  2  0  0  0  0
 28144  1  0  0  0  0
 28299  1  0  0  0  0
 29143  2  0  0  0  0
 30146  1  0  0  0  0
 30300  1  0  0  0  0
 31147  2  0  0  0  0
 32148  2  0  0  0  0
 33150  2  0  0  0  0
 34151  2  0  0  0  0
 35154  2  0  0  0  0
 36158  2  0  0  0  0
 37162  1  0  0  0  0
 37316  1  0  0  0  0
 38166  1  0  0  0  0
 38319  1  0  0  0  0
 39167  1  0  0  0  0
 39321  1  0  0  0  0
 40173  1  0  0  0  0
 40201  1  0  0  0  0
 41174  1  0  0  0  0
 41202  1  0  0  0  0
 42169  1  0  0  0  0
 42322  1  0  0  0  0
 43190  1  0  0  0  0
 43194  1  0  0  0  0
 44172  1  0  0  0  0
 44323  1  0  0  0  0
 45193  1  0  0  0  0
 45195  1  0  0  0  0
 46176  1  0  0  0  0
 46326  1  0  0  0  0
 47177  1  0  0  0  0
 47329  1  0  0  0  0
 48183  1  0  0  0  0
 48204  1  0  0  0  0
 49184  1  0  0  0  0
 49206  1  0  0  0  0
 50187  1  0  0  0  0
 50207  1  0  0  0  0
 51178  1  0  0  0  0
 51330  1  0  0  0  0
 52185  1  0  0  0  0
 52215  1  0  0  0  0
 53186  1  0  0  0  0
 53216  1  0  0  0  0
 54191  1  0  0  0  0
 54210  1  0  0  0  0
 55181  1  0  0  0  0
 55331  1  0  0  0  0
 56182  1  0  0  0  0
 56332  1  0  0  0  0
 57188  1  0  0  0  0
 57218  1  0  0  0  0
 58194  1  0  0  0  0
 58208  1  0  0  0  0
 59189  1  0  0  0  0
 59219  1  0  0  0  0
 60195  1  0  0  0  0
 60214  1  0  0  0  0
 61192  1  0  0  0  0
 61333  1  0  0  0  0
 62196  1  0  0  0  0
 62334  1  0  0  0  0
 63197  1  0  0  0  0
 63335  1  0  0  0  0
 64199  1  0  0  0  0
 64236  1  0  0  0  0
 65198  1  0  0  0  0
 65336  1  0  0  0  0
 66200  1  0  0  0  0
 66238  1  0  0  0  0
 67207  2  0  0  0  0
 68212  1  0  0  0  0
 68341  1  0  0  0  0
 69213  1  0  0  0  0
 69342  1  0  0  0  0
 70208  2  0  0  0  0
 71210  2  0  0  0  0
 72214  2  0  0  0  0
 73221  1  0  0  0  0
 73343  1  0  0  0  0
 74215  2  0  0  0  0
 75222  1  0  0  0  0
 75346  1  0  0  0  0
 76216  2  0  0  0  0
 77218  2  0  0  0  0
 78219  2  0  0  0  0
 79223  1  0  0  0  0
 79353  1  0  0  0  0
 80224  1  0  0  0  0
 80354  1  0  0  0  0
 81226  1  0  0  0  0
 81355  1  0  0  0  0
 82228  1  0  0  0  0
 82356  1  0  0  0  0
 83229  1  0  0  0  0
 83357  1  0  0  0  0
 84232  1  0  0  0  0
 84358  1  0  0  0  0
 85233  1  0  0  0  0
 85359  1  0  0  0  0
 86237  1  0  0  0  0
 86360  1  0  0  0  0
 87236  2  0  0  0  0
 88238  2  0  0  0  0
 89249  1  0  0  0  0
 89365  1  0  0  0  0
 90250  1  0  0  0  0
 90366  1  0  0  0  0
 91251  1  0  0  0  0
 91367  1  0  0  0  0
 92252  1  0  0  0  0
 92368  1  0  0  0  0
 93253  1  0  0  0  0
 93369  1  0  0  0  0
 94254  1  0  0  0  0
 94370  1  0  0  0  0
 95255  1  0  0  0  0
 95371  1  0  0  0  0
 96256  1  0  0  0  0
 96372  1  0  0  0  0
 97259  1  0  0  0  0
 97373  1  0  0  0  0
 98260  1  0  0  0  0
 98374  1  0  0  0  0
 99263  1  0  0  0  0
 99375  1  0  0  0  0
100264  1  0  0  0  0
100376  1  0  0  0  0
101265  1  0  0  0  0
101377  1  0  0  0  0
102266  1  0  0  0  0
102378  1  0  0  0  0
103267  1  0  0  0  0
103379  1  0  0  0  0
104268  1  0  0  0  0
104380  1  0  0  0  0
105269  1  0  0  0  0
105381  1  0  0  0  0
106270  1  0  0  0  0
106382  1  0  0  0  0
107108  1  0  0  0  0
107109  1  0  0  0  0
107111  1  0  0  0  0
107271  1  0  0  0  0
108110  1  0  0  0  0
109114  2  0  0  0  0
109119  1  0  0  0  0
110120  1  0  0  0  0
111122  2  0  0  0  0
111124  1  0  0  0  0
112113  1  0  0  0  0
112116  1  0  0  0  0
112272  1  0  0  0  0
113115  1  0  0  0  0
113273  1  0  0  0  0
114130  1  0  0  0  0
115121  1  0  0  0  0
115274  1  0  0  0  0
116133  1  0  0  0  0
116275  1  0  0  0  0
117118  1  0  0  0  0
117126  1  0  0  0  0
117128  1  0  0  0  0
117276  1  0  0  0  0
118123  1  0  0  0  0
119132  1  0  0  0  0
119134  2  0  0  0  0
120122  1  0  0  0  0
121277  1  0  0  0  0
122278  1  0  0  0  0
123137  1  0  0  0  0
125127  1  0  0  0  0
125131  1  0  0  0  0
125279  1  0  0  0  0
126135  2  0  0  0  0
126139  1  0  0  0  0
127129  1  0  0  0  0
127280  1  0  0  0  0
128140  2  0  0  0  0
128141  1  0  0  0  0
129136  1  0  0  0  0
129281  1  0  0  0  0
130138  2  0  0  0  0
131142  1  0  0  0  0
131283  1  0  0  0  0
133284  1  0  0  0  0
133285  1  0  0  0  0
134138  1  0  0  0  0
134286  1  0  0  0  0
135144  1  0  0  0  0
136287  1  0  0  0  0
137140  1  0  0  0  0
139143  1  0  0  0  0
139145  2  0  0  0  0
140290  1  0  0  0  0
142291  1  0  0  0  0
142292  1  0  0  0  0
144146  2  0  0  0  0
145146  1  0  0  0  0
145296  1  0  0  0  0
147149  1  0  0  0  0
148157  1  0  0  0  0
149152  1  0  0  0  0
149159  2  0  0  0  0
150156  1  0  0  0  0
151153  1  0  0  0  0
152155  1  0  0  0  0
152162  2  0  0  0  0
153155  1  0  0  0  0
153165  2  0  0  0  0
154164  1  0  0  0  0
155166  2  0  0  0  0
156160  1  0  0  0  0
156168  2  0  0  0  0
157170  2  0  0  0  0
157171  1  0  0  0  0
158161  1  0  0  0  0
159167  1  0  0  0  0
159301  1  0  0  0  0
160163  1  0  0  0  0
160172  2  0  0  0  0
161163  1  0  0  0  0
161175  2  0  0  0  0
162169  1  0  0  0  0
163176  2  0  0  0  0
164179  2  0  0  0  0
164180  1  0  0  0  0
165173  1  0  0  0  0
165302  1  0  0  0  0
166174  1  0  0  0  0
167169  2  0  0  0  0
168177  1  0  0  0  0
168303  1  0  0  0  0
170182  1  0  0  0  0
170304  1  0  0  0  0
171181  2  0  0  0  0
171305  1  0  0  0  0
172178  1  0  0  0  0
173174  2  0  0  0  0
175183  1  0  0  0  0
175306  1  0  0  0  0
176184  1  0  0  0  0
177178  2  0  0  0  0
179197  1  0  0  0  0
179307  1  0  0  0  0
180196  2  0  0  0  0
180308  1  0  0  0  0
181192  1  0  0  0  0
182192  2  0  0  0  0
183184  2  0  0  0  0
185186  1  0  0  0  0
185187  1  0  0  0  0
185309  1  0  0  0  0
186190  1  0  0  0  0
186310  1  0  0  0  0
187194  1  0  0  0  0
187311  1  0  0  0  0
188189  1  0  0  0  0
188191  1  0  0  0  0
188312  1  0  0  0  0
189193  1  0  0  0  0
189313  1  0  0  0  0
190199  1  0  0  0  0
190314  1  0  0  0  0
191195  1  0  0  0  0
191315  1  0  0  0  0
193200  1  0  0  0  0
193317  1  0  0  0  0
194318  1  0  0  0  0
195320  1  0  0  0  0
196198  1  0  0  0  0
197198  2  0  0  0  0
199324  1  0  0  0  0
199325  1  0  0  0  0
200327  1  0  0  0  0
200328  1  0  0  0  0
201203  1  0  0  0  0
201212  2  0  0  0  0
202205  1  0  0  0  0
202213  2  0  0  0  0
203207  1  0  0  0  0
203217  2  0  0  0  0
204209  1  0  0  0  0
204221  2  0  0  0  0
205208  1  0  0  0  0
205220  2  0  0  0  0
206211  1  0  0  0  0
206222  2  0  0  0  0
209210  1  0  0  0  0
209225  2  0  0  0  0
211214  1  0  0  0  0
211227  2  0  0  0  0
212223  1  0  0  0  0
213224  1  0  0  0  0
215230  1  0  0  0  0
216231  1  0  0  0  0
217226  1  0  0  0  0
217337  1  0  0  0  0
218234  1  0  0  0  0
219235  1  0  0  0  0
220228  1  0  0  0  0
220338  1  0  0  0  0
221229  1  0  0  0  0
222232  1  0  0  0  0
223226  2  0  0  0  0
224228  2  0  0  0  0
225233  1  0  0  0  0
225339  1  0  0  0  0
227237  1  0  0  0  0
227340  1  0  0  0  0
229233  2  0  0  0  0
230239  2  0  0  0  0
230240  1  0  0  0  0
231242  2  0  0  0  0
231243  1  0  0  0  0
232237  2  0  0  0  0
234245  2  0  0  0  0
234246  1  0  0  0  0
235247  2  0  0  0  0
235248  1  0  0  0  0
236241  1  0  0  0  0
238244  1  0  0  0  0
239250  1  0  0  0  0
239344  1  0  0  0  0
240249  2  0  0  0  0
240345  1  0  0  0  0
241257  2  0  0  0  0
241258  1  0  0  0  0
242252  1  0  0  0  0
242347  1  0  0  0  0
243251  2  0  0  0  0
243348  1  0  0  0  0
244261  2  0  0  0  0
244262  1  0  0  0  0
245254  1  0  0  0  0
245349  1  0  0  0  0
246253  2  0  0  0  0
246350  1  0  0  0  0
247256  1  0  0  0  0
247351  1  0  0  0  0
248255  2  0  0  0  0
248352  1  0  0  0  0
249259  1  0  0  0  0
250259  2  0  0  0  0
251260  1  0  0  0  0
252260  2  0  0  0  0
253263  1  0  0  0  0
254263  2  0  0  0  0
255264  1  0  0  0  0
256264  2  0  0  0  0
257266  1  0  0  0  0
257361  1  0  0  0  0
258265  2  0  0  0  0
258362  1  0  0  0  0
261268  1  0  0  0  0
261363  1  0  0  0  0
262267  2  0  0  0  0
262364  1  0  0  0  0
265269  1  0  0  0  0
266269  2  0  0  0  0
267270  1  0  0  0  0
268270  2  0  0  0  0
M  END
> <PUBCHEM_COMPOUND_CID>
16133920

> <PUBCHEM_COMPOUND_CANONICALIZED>
1

> <PUBCHEM_CACTVS_COMPLEXITY>
8860

> <PUBCHEM_CACTVS_HBOND_ACCEPTOR>
106

> <PUBCHEM_CACTVS_HBOND_DONOR>
54

> <PUBCHEM_CACTVS_ROTATABLE_BOND>
26

> <PUBCHEM_CACTVS_SUBSKEYS>
AAADcfB8PgAAAAAAAAAAAAAAAAAAASAAAAA0aNGjAAAAAEiRVAAAGgAACAAADRSwmAMwDoAABgCIAqDSCAICCAAkIAAAiAFGiMgdJzaGNR6ieWOl4BUPuYfK7PzOoQABCAAYQABCAAIQADCAAAAAAAAAAA==

> <PUBCHEM_IUPAC_OPENEYE_NAME>
[(1R,62R)-1,13,14,15,18,22,23,24,39,40,41,58,59,63,63-pentadecahydroxy-2,5,10,27,36,47,55-heptaoxo-32,33,52-tris[(3,4,5-trihydroxybenzoyl)oxy]-6,9,20,28,30,35,43,48,51,54,64-undecaoxadodecacyclo[58.3.1.04,62.07,50.08,53.011,16.017,46.019,44.021,26.029,34.037,42.056,61]tetrahexaconta-3,11,13,15,17,19(44),21,23,25,37,39,41,45,56,58,60-hexadecaen-31-yl]methyl 3,4,5-trihydroxybenzoate;[(1R,63R)-1,2,2,14,15,16,19,23,24,25,40,41,42,59,60-pentadecahydroxy-3,6,11,28,37,48,56-heptaoxo-33,34,53-tris[(3,4,5-trihydroxybenzoyl)oxy]-7,10,21,29,31,36,44,49,52,55,64-undecaoxadodecacyclo[59.2.1.05,63.08,51.09,54.012,17.018,47.020,45.022,27.030,35.038,43.057,62]tetrahexaconta-4,12,14,16,18,20(45),22,24,26,38,40,42,46,57,59,61-hexadecaen-32-yl]methyl 3,4,5-trihydroxybenzoate

> <PUBCHEM_IUPAC_CAS_NAME>
3,4,5-trihydroxybenzoic acid [(1R,62R)-1,13,14,15,18,22,23,24,39,40,41,58,59,63,63-pentadecahydroxy-2,5,10,27,36,47,55-heptaoxo-32,33,52-tris[oxo-(3,4,5-trihydroxyphenyl)methoxy]-6,9,20,28,30,35,43,48,51,54,64-undecaoxadodecacyclo[58.3.1.04,62.07,50.08,53.011,16.017,46.019,44.021,26.029,34.037,42.056,61]tetrahexaconta-3,11,13,15,17,19(44),21,23,25,37,39,41,45,56,58,60-hexadecaen-31-yl]methyl ester;3,4,5-trihydroxybenzoic acid [(1R,63R)-1,2,2,14,15,16,19,23,24,25,40,41,42,59,60-pentadecahydroxy-3,6,11,28,37,48,56-heptaoxo-33,34,53-tris[oxo-(3,4,5-trihydroxyphenyl)methoxy]-7,10,21,29,31,36,44,49,52,55,64-undecaoxadodecacyclo[59.2.1.05,63.08,51.09,54.012,17.018,47.020,45.022,27.030,35.038,43.057,62]tetrahexaconta-4,12,14,16,18,20(45),22,24,26,38,40,42,46,57,59,61-hexadecaen-32-yl]methyl ester

> <PUBCHEM_IUPAC_NAME_MARKUP>
[(1<I>R</I>,62<I>R</I>)-1,13,14,15,18,22,23,24,39,40,41,58,59,63,63-pentadecahydroxy-2,5,10,27,36,47,55-heptaoxo-32,33,52-tris[(3,4,5-trihydroxybenzoyl)oxy]-6,9,20,28,30,35,43,48,51,54,64-undecaoxadodecacyclo[58.3.1.0<SUP>4,62</SUP>.0<SUP>7,50</SUP>.0<SUP>8,53</SUP>.0<SUP>11,16</SUP>.0<SUP>17,46</SUP>.0<SUP>19,44</SUP>.0<SUP>21,26</SUP>.0<SUP>29,34</SUP>.0<SUP>37,42</SUP>.0<SUP>56,61</SUP>]tetrahexaconta-3,11,13,15,17,19(44),21,23,25,37,39,41,45,56,58,60-hexadecaen-31-yl]methyl 3,4,5-trihydroxybenzoate;[(1<I>R</I>,63<I>R</I>)-1,2,2,14,15,16,19,23,24,25,40,41,42,59,60-pentadecahydroxy-3,6,11,28,37,48,56-heptaoxo-33,34,53-tris[(3,4,5-trihydroxybenzoyl)oxy]-7,10,21,29,31,36,44,49,52,55,64-undecaoxadodecacyclo[59.2.1.0<SUP>5,63</SUP>.0<SUP>8,51</SUP>.0<SUP>9,54</SUP>.0<SUP>12,17</SUP>.0<SUP>18,47</SUP>.0<SUP>20,45</SUP>.0<SUP>22,27</SUP>.0<SUP>30,35</SUP>.0<SUP>38,43</SUP>.0<SUP>57,62</SUP>]tetrahexaconta-4,12,14,16,18,20(45),22,24,26,38,40,42,46,57,59,61-hexadecaen-32-yl]methyl 3,4,5-trihydroxybenzoate

> <PUBCHEM_IUPAC_NAME>
[(1R,62R)-1,13,14,15,18,22,23,24,39,40,41,58,59,63,63-pentadecahydroxy-2,5,10,27,36,47,55-heptaoxo-32,33,52-tris[(3,4,5-trihydroxybenzoyl)oxy]-6,9,20,28,30,35,43,48,51,54,64-undecaoxadodecacyclo[58.3.1.04,62.07,50.08,53.011,16.017,46.019,44.021,26.029,34.037,42.056,61]tetrahexaconta-3,11,13,15,17,19(44),21,23,25,37,39,41,45,56,58,60-hexadecaen-31-yl]methyl 3,4,5-trihydroxybenzoate;[(1R,63R)-1,2,2,14,15,16,19,23,24,25,40,41,42,59,60-pentadecahydroxy-3,6,11,28,37,48,56-heptaoxo-33,34,53-tris[(3,4,5-trihydroxybenzoyl)oxy]-7,10,21,29,31,36,44,49,52,55,64-undecaoxadodecacyclo[59.2.1.05,63.08,51.09,54.012,17.018,47.020,45.022,27.030,35.038,43.057,62]tetrahexaconta-4,12,14,16,18,20(45),22,24,26,38,40,42,46,57,59,61-hexadecaen-32-yl]methyl 3,4,5-trihydroxybenzoate

> <PUBCHEM_IUPAC_SYSTEMATIC_NAME>
[(1R,62R)-1,13,14,15,18,22,23,24,39,40,41,58,59,63,63-pentadecakis(oxidanyl)-2,5,10,27,36,47,55-heptakis(oxidanylidene)-32,33,52-tris[[3,4,5-tris(oxidanyl)phenyl]carbonyloxy]-6,9,20,28,30,35,43,48,51,54,64-undecaoxadodecacyclo[58.3.1.04,62.07,50.08,53.011,16.017,46.019,44.021,26.029,34.037,42.056,61]tetrahexaconta-3,11,13,15,17,19(44),21,23,25,37,39,41,45,56,58,60-hexadecaen-31-yl]methyl 3,4,5-tris(oxidanyl)benzoate;[(1R,63R)-1,2,2,14,15,16,19,23,24,25,40,41,42,59,60-pentadecakis(oxidanyl)-3,6,11,28,37,48,56-heptakis(oxidanylidene)-33,34,53-tris[[3,4,5-tris(oxidanyl)phenyl]carbonyloxy]-7,10,21,29,31,36,44,49,52,55,64-undecaoxadodecacyclo[59.2.1.05,63.08,51.09,54.012,17.018,47.020,45.022,27.030,35.038,43.057,62]tetrahexaconta-4,12,14,16,18,20(45),22,24,26,38,40,42,46,57,59,61-hexadecaen-32-yl]methyl 3,4,5-tris(oxidanyl)benzoate

> <PUBCHEM_IUPAC_TRADITIONAL_NAME>
3,4,5-trihydroxybenzoic acid [(1R,62R)-32,33,52-trigalloyloxy-1,13,14,15,18,22,23,24,39,40,41,58,59,63,63-pentadecahydroxy-2,5,10,27,36,47,55-heptaketo-6,9,20,28,30,35,43,48,51,54,64-undecaoxadodecacyclo[58.3.1.04,62.07,50.08,53.011,16.017,46.019,44.021,26.029,34.037,42.056,61]tetrahexaconta-3,11,13,15,17,19(44),21,23,25,37,39,41,45,56,58,60-hexadecaen-31-yl]methyl ester;3,4,5-trihydroxybenzoic acid [(1R,63R)-33,34,53-trigalloyloxy-1,2,2,14,15,16,19,23,24,25,40,41,42,59,60-pentadecahydroxy-3,6,11,28,37,48,56-heptaketo-7,10,21,29,31,36,44,49,52,55,64-undecaoxadodecacyclo[59.2.1.05,63.08,51.09,54.012,17.018,47.020,45.022,27.030,35.038,43.057,62]tetrahexaconta-4,12,14,16,18,20(45),22,24,26,38,40,42,46,57,59,61-hexadecaen-32-yl]methyl ester

> <PUBCHEM_IUPAC_INCHI>
InChI=1S/2C82H56O53/c83-27-1-17(2-28(84)47(27)96)69(108)121-15-40-62(127-70(109)18-3-29(85)48(97)30(86)4-18)65(129-71(110)19-5-31(87)49(98)32(88)6-19)67-80(125-40)134-78(117)26-12-37(93)53(102)58(107)60(26)126-61-39(123-59-25(77(116)132-67)11-36(92)52(101)57(59)106)13-23-44(56(61)105)43-21(9-35(91)51(100)55(43)104)74(113)130-66-63-41(16-122-73(23)112)124-79(133-72(111)20-7-33(89)50(99)34(90)8-20)68(66)131-75(114)22-10-38(94)54(103)64-45(22)46-24(76(115)128-63)14-42(95)82(120,135-64)81(46,118)119;83-27-1-17(2-28(84)47(27)96)69(108)121-15-40-62(127-70(109)18-3-29(85)48(97)30(86)4-18)65(129-71(110)19-5-31(87)49(98)32(88)6-19)67-80(125-40)134-78(117)26-12-37(93)53(102)58(107)60(26)126-61-39(123-59-25(77(116)132-67)11-36(92)52(101)57(59)106)13-23-44(56(61)105)43-21(9-35(91)51(100)55(43)104)74(113)130-66-63-41(16-122-73(23)112)124-79(133-72(111)20-7-33(89)50(99)34(90)8-20)68(66)131-75(114)22-10-38(94)54(103)64-45(22)46-24(76(115)128-63)14-42(95)81(118,119)82(46,120)135-64/h2*1-14,40-41,46,62-63,65-68,79-80,83-94,96-107,118-120H,15-16H2/t40?,41?,46-,62?,63?,65?,66?,67?,68?,79?,80?,82-;40?,41?,46-,62?,63?,65?,66?,67?,68?,79?,80?,82+/m00/s1

> <PUBCHEM_IUPAC_INCHIKEY>
IWQMOXUVJMFHQV-OFLZJBCMSA-N

> <PUBCHEM_EXACT_MASS>
3777.3407080

> <PUBCHEM_MOLECULAR_FORMULA>
C164H112O106

> <PUBCHEM_MOLECULAR_WEIGHT>
3778.6

> <PUBCHEM_OPENEYE_CAN_SMILES>
C1C2C3C(C(C(O2)OC(=O)C4=CC(=C(C(=C4)O)O)O)OC(=O)C5=CC(=C(C6=C5C7C(=CC(=O)C(C7(O)O)(O6)O)C(=O)O3)O)O)OC(=O)C8=CC(=C(C(=C8C9=C(C2=C(C=C9C(=O)O1)OC1=C(C(=C(C=C1C(=O)OC1C(C(C(OC1OC(=O)C1=CC(=C(C(=C1O2)O)O)O)COC(=O)C1=CC(=C(C(=C1)O)O)O)OC(=O)C1=CC(=C(C(=C1)O)O)O)OC(=O)C1=CC(=C(C(=C1)O)O)O)O)O)O)O)O)O)O.C1C2C3C(C(C(O2)OC(=O)C4=CC(=C(C(=C4)O)O)O)OC(=O)C5=CC(=C(C6=C5C7C(=CC(=O)C(C7(O6)O)(O)O)C(=O)O3)O)O)OC(=O)C8=CC(=C(C(=C8C9=C(C2=C(C=C9C(=O)O1)OC1=C(C(=C(C=C1C(=O)OC1C(C(C(OC1OC(=O)C1=CC(=C(C(=C1O2)O)O)O)COC(=O)C1=CC(=C(C(=C1)O)O)O)OC(=O)C1=CC(=C(C(=C1)O)O)O)OC(=O)C1=CC(=C(C(=C1)O)O)O)O)O)O)O)O)O)O

> <PUBCHEM_OPENEYE_ISO_SMILES>
C1C2C3C(C(C(O2)OC(=O)C4=CC(=C(C(=C4)O)O)O)OC(=O)C5=CC(=C(C6=C5[C@@H]7C(=CC(=O)C([C@@]7(O6)O)(O)O)C(=O)O3)O)O)OC(=O)C8=CC(=C(C(=C8C9=C(C2=C(C=C9C(=O)O1)OC1=C(C(=C(C=C1C(=O)OC1C(C(C(OC1OC(=O)C1=CC(=C(C(=C1O2)O)O)O)COC(=O)C1=CC(=C(C(=C1)O)O)O)OC(=O)C1=CC(=C(C(=C1)O)O)O)OC(=O)C1=CC(=C(C(=C1)O)O)O)O)O)O)O)O)O)O.C1C2C3C(C(C(O2)OC(=O)C4=CC(=C(C(=C4)O)O)O)OC(=O)C5=CC(=C(C6=C5[C@@H]7C(=CC(=O)[C@@](C7(O)O)(O6)O)C(=O)O3)O)O)OC(=O)C8=CC(=C(C(=C8C9=C(C2=C(C=C9C(=O)O1)OC1=C(C(=C(C=C1C(=O)OC1C(C(C(OC1OC(=O)C1=CC(=C(C(=C1O2)O)O)O)COC(=O)C1=CC(=C(C(=C1)O)O)O)OC(=O)C1=CC(=C(C(=C1)O)O)O)OC(=O)C1=CC(=C(C(=C1)O)O)O)O)O)O)O)O)O)O

> <PUBCHEM_CACTVS_TPSA>
1740

> <PUBCHEM_MONOISOTOPIC_WEIGHT>
3776.3373532

> <PUBCHEM_TOTAL_CHARGE>
0

> <PUBCHEM_HEAVY_ATOM_COUNT>
270

> <PUBCHEM_ATOM_DEF_STEREO_COUNT>
4

> <PUBCHEM_ATOM_UDEF_STEREO_COUNT>
20

> <PUBCHEM_BOND_DEF_STEREO_COUNT>
0

> <PUBCHEM_BOND_UDEF_STEREO_COUNT>
0

> <PUBCHEM_ISOTOPIC_ATOM_COUNT>
0

> <PUBCHEM_COMPONENT_COUNT>
2

> <PUBCHEM_CACTVS_TAUTO_COUNT>
-1

> <PUBCHEM_COORDINATE_TYPE>
1
5
255

> <PUBCHEM_BONDANNOTATIONS>
109  114  8
109  119  8
125  11  3
114  130  8
116  133  3
119  134  8
121  12  3
126  135  8
126  139  8
129  13  3
130  138  8
131  142  3
134  138  8
135  144  8
139  145  8
144  146  8
145  146  8
149  152  8
149  159  8
152  162  8
153  155  8
153  165  8
155  166  8
156  160  8
156  168  8
157  170  8
157  171  8
159  167  8
160  172  8
161  163  8
161  175  8
162  169  8
163  176  8
164  179  8
164  180  8
165  173  8
166  174  8
167  169  8
168  177  8
127  17  3
170  182  8
171  181  8
172  178  8
173  174  8
175  183  8
176  184  8
177  178  8
179  197  8
180  196  8
181  192  8
182  192  8
183  184  8
190  199  3
193  200  3
196  198  8
197  198  8
201  203  8
201  212  8
202  205  8
202  213  8
203  217  8
204  209  8
204  221  8
205  220  8
206  211  8
206  222  8
209  225  8
211  227  8
212  223  8
213  224  8
217  226  8
136  22  3
220  228  8
221  229  8
222  232  8
223  226  8
224  228  8
225  233  8
227  237  8
229  233  8
230  239  8
230  240  8
231  242  8
231  243  8
232  237  8
234  245  8
234  246  8
235  247  8
235  248  8
239  250  8
240  249  8
241  257  8
241  258  8
242  252  8
243  251  8
244  261  8
244  262  8
245  254  8
246  253  8
247  256  8
248  255  8
249  259  8
250  259  8
251  260  8
252  260  8
253  263  8
254  263  8
255  264  8
256  264  8
257  266  8
258  265  8
261  268  8
262  267  8
265  269  8
266  269  8
267  270  8
268  270  8
112  3  3
194  43  3
195  45  3
115  5  3
187  50  3
185  52  3
186  53  3
191  54  3
188  57  3
189  59  3
113  9  3

$$$$
