3461265
  -OEChem-02132300352D

 35 37  0     1  0  0  0  0  0999 V2000
    3.9123    2.8014    0.0000 O   0  0  0  0  0  0  0  0  0  0  0  0
    4.8384   -0.8201    0.0000 O   0  0  0  0  0  0  0  0  0  0  0  0
    2.0000    2.2957    0.0000 O   0  0  0  0  0  0  0  0  0  0  0  0
    6.9139    2.8100    0.0000 O   0  0  0  0  0  0  0  0  0  0  0  0
    7.7799    1.3100    0.0000 O   0  0  0  0  0  0  0  0  0  0  0  0
    7.7890   -3.1200    0.0000 O   0  0  0  0  0  0  0  0  0  0  0  0
    5.7890    0.3441    0.0000 C   0  0  3  0  0  0  0  0  0  0  0  0
    4.3901    0.8529    0.0000 C   0  0  3  0  0  0  0  0  0  0  0  0
    6.0478    1.3100    0.0000 C   0  0  3  0  0  0  0  0  0  0  0  0
    4.6489    1.8188    0.0000 C   0  0  3  0  0  0  0  0  0  0  0  0
    3.1691   -0.0128    0.0000 C   0  0  0  0  0  0  0  0  0  0  0  0
    4.1313   -0.1130    0.0000 C   0  0  0  0  0  0  0  0  0  0  0  0
    6.2890   -0.5219    0.0000 C   0  0  0  0  0  0  0  0  0  0  0  0
    2.6157    1.5077    0.0000 C   0  0  0  0  0  0  0  0  0  0  0  0
    6.9139    1.8100    0.0000 C   0  0  0  0  0  0  0  0  0  0  0  0
    2.3400    0.5464    0.0000 C   0  0  0  0  0  0  0  0  0  0  0  0
    7.2890   -0.5219    0.0000 C   0  0  0  0  0  0  0  0  0  0  0  0
    5.7890   -1.3880    0.0000 C   0  0  0  0  0  0  0  0  0  0  0  0
    7.7890   -1.3880    0.0000 C   0  0  0  0  0  0  0  0  0  0  0  0
    6.2890   -2.2540    0.0000 C   0  0  0  0  0  0  0  0  0  0  0  0
    7.2890   -2.2540    0.0000 C   0  0  0  0  0  0  0  0  0  0  0  0
    5.3906   -0.1309    0.0000 H   0  0  0  0  0  0  0  0  0  0  0  0
    6.5397    0.9326    0.0000 H   0  0  0  0  0  0  0  0  0  0  0  0
    5.0183    2.3168    0.0000 H   0  0  0  0  0  0  0  0  0  0  0  0
    3.1763   -0.6327    0.0000 H   0  0  0  0  0  0  0  0  0  0  0  0
    3.5694    0.1490    0.0000 H   0  0  0  0  0  0  0  0  0  0  0  0
    3.7756   -0.6209    0.0000 H   0  0  0  0  0  0  0  0  0  0  0  0
    1.7574    0.3344    0.0000 H   0  0  0  0  0  0  0  0  0  0  0  0
    7.5990    0.0150    0.0000 H   0  0  0  0  0  0  0  0  0  0  0  0
    5.1690   -1.3880    0.0000 H   0  0  0  0  0  0  0  0  0  0  0  0
    4.6779   -1.4190    0.0000 H   0  0  0  0  0  0  0  0  0  0  0  0
    8.4090   -1.3880    0.0000 H   0  0  0  0  0  0  0  0  0  0  0  0
    5.9790   -2.7909    0.0000 H   0  0  0  0  0  0  0  0  0  0  0  0
    7.4508    3.1200    0.0000 H   0  0  0  0  0  0  0  0  0  0  0  0
    8.4090   -3.1200    0.0000 H   0  0  0  0  0  0  0  0  0  0  0  0
  1  8  1  0  0  0  0
  1 10  1  0  0  0  0
  2 12  1  0  0  0  0
  2 31  1  0  0  0  0
  3 14  2  0  0  0  0
  4 15  1  0  0  0  0
  4 34  1  0  0  0  0
  5 15  2  0  0  0  0
  6 21  1  0  0  0  0
  6 35  1  0  0  0  0
  7  8  1  0  0  0  0
  7  9  1  0  0  0  0
  7 13  1  0  0  0  0
  7 22  1  0  0  0  0
  8 11  1  0  0  0  0
  8 12  1  0  0  0  0
  9 10  1  0  0  0  0
  9 15  1  0  0  0  0
  9 23  1  0  0  0  0
 10 14  1  0  0  0  0
 10 24  1  0  0  0  0
 11 16  2  0  0  0  0
 11 25  1  0  0  0  0
 12 26  1  0  0  0  0
 12 27  1  0  0  0  0
 13 17  2  0  0  0  0
 13 18  1  0  0  0  0
 14 16  1  0  0  0  0
 16 28  1  0  0  0  0
 17 19  1  0  0  0  0
 17 29  1  0  0  0  0
 18 20  2  0  0  0  0
 18 30  1  0  0  0  0
 19 21  2  0  0  0  0
 19 32  1  0  0  0  0
 20 21  1  0  0  0  0
 20 33  1  0  0  0  0
M  END
> <PUBCHEM_COMPOUND_CID>
3461265

> <PUBCHEM_COMPOUND_CANONICALIZED>
1

> <PUBCHEM_CACTVS_COMPLEXITY>
479

> <PUBCHEM_CACTVS_HBOND_ACCEPTOR>
6

> <PUBCHEM_CACTVS_HBOND_DONOR>
3

> <PUBCHEM_CACTVS_ROTATABLE_BOND>
3

> <PUBCHEM_CACTVS_SUBSKEYS>
AAADccBwOAAAAAAAAAAAAAAAAAAAASAAAAAwQAAABAAAAAABAAAAGgAACAAADVSgmAIwDoAABgCIAqDSCAICAAAgIAAIiAFGCMgJNjaCMRaCcAAl4BELuYfL7PTOoAAAAAAAAABAAAAAAAAAAAAAAAAAAA==

> <PUBCHEM_IUPAC_OPENEYE_NAME>
1-(hydroxymethyl)-7-(4-hydroxyphenyl)-4-oxo-8-oxabicyclo[3.2.1]oct-2-ene-6-carboxylic acid

> <PUBCHEM_IUPAC_CAS_NAME>
1-(hydroxymethyl)-7-(4-hydroxyphenyl)-4-oxo-8-oxabicyclo[3.2.1]oct-2-ene-6-carboxylic acid

> <PUBCHEM_IUPAC_NAME_MARKUP>
1-(hydroxymethyl)-7-(4-hydroxyphenyl)-4-oxo-8-oxabicyclo[3.2.1]oct-2-ene-6-carboxylic acid

> <PUBCHEM_IUPAC_NAME>
1-(hydroxymethyl)-7-(4-hydroxyphenyl)-4-oxo-8-oxabicyclo[3.2.1]oct-2-ene-6-carboxylic acid

> <PUBCHEM_IUPAC_SYSTEMATIC_NAME>
1-(hydroxymethyl)-7-(4-hydroxyphenyl)-4-oxidanylidene-8-oxabicyclo[3.2.1]oct-2-ene-6-carboxylic acid

> <PUBCHEM_IUPAC_TRADITIONAL_NAME>
7-(4-hydroxyphenyl)-4-keto-1-methylol-8-oxabicyclo[3.2.1]oct-2-ene-6-carboxylic acid

> <PUBCHEM_IUPAC_INCHI>
InChI=1S/C15H14O6/c16-7-15-6-5-10(18)13(21-15)11(14(19)20)12(15)8-1-3-9(17)4-2-8/h1-6,11-13,16-17H,7H2,(H,19,20)

> <PUBCHEM_IUPAC_INCHIKEY>
IJGLRFRYPAUECC-UHFFFAOYSA-N

> <PUBCHEM_XLOGP3_AA>
-0.1

> <PUBCHEM_EXACT_MASS>
290.07903816

> <PUBCHEM_MOLECULAR_FORMULA>
C15H14O6

> <PUBCHEM_MOLECULAR_WEIGHT>
290.27

> <PUBCHEM_OPENEYE_CAN_SMILES>
C1=CC(=CC=C1C2C(C3C(=O)C=CC2(O3)CO)C(=O)O)O

> <PUBCHEM_OPENEYE_ISO_SMILES>
C1=CC(=CC=C1C2C(C3C(=O)C=CC2(O3)CO)C(=O)O)O

> <PUBCHEM_CACTVS_TPSA>
104

> <PUBCHEM_MONOISOTOPIC_WEIGHT>
290.07903816

> <PUBCHEM_TOTAL_CHARGE>
0

> <PUBCHEM_HEAVY_ATOM_COUNT>
21

> <PUBCHEM_ATOM_DEF_STEREO_COUNT>
0

> <PUBCHEM_ATOM_UDEF_STEREO_COUNT>
4

> <PUBCHEM_BOND_DEF_STEREO_COUNT>
0

> <PUBCHEM_BOND_UDEF_STEREO_COUNT>
0

> <PUBCHEM_ISOTOPIC_ATOM_COUNT>
0

> <PUBCHEM_COMPONENT_COUNT>
1

> <PUBCHEM_CACTVS_TAUTO_COUNT>
-1

> <PUBCHEM_COORDINATE_TYPE>
1
5
255

> <PUBCHEM_BONDANNOTATIONS>
10  14  3
13  17  8
13  18  8
17  19  8
18  20  8
19  21  8
20  21  8
7  13  3
8  12  3
9  15  3

$$$$
