5375190
  -OEChem-02132300362D

 32 32  0     1  0  0  0  0  0999 V2000
    3.8660   -3.0000    0.0000 O   0  0  0  0  0  0  0  0  0  0  0  0
    3.0000   -0.5000    0.0000 C   0  0  0  0  0  0  0  0  0  0  0  0
    3.8660    0.0000    0.0000 C   0  0  3  0  0  0  0  0  0  0  0  0
    3.0000   -1.5000    0.0000 C   0  0  0  0  0  0  0  0  0  0  0  0
    4.7320   -0.5000    0.0000 C   0  0  0  0  0  0  0  0  0  0  0  0
    2.0000   -0.5000    0.0000 C   0  0  0  0  0  0  0  0  0  0  0  0
    2.5000    0.3660    0.0000 C   0  0  0  0  0  0  0  0  0  0  0  0
    3.8660   -2.0000    0.0000 C   0  0  0  0  0  0  0  0  0  0  0  0
    3.8660    1.0000    0.0000 C   0  0  0  0  0  0  0  0  0  0  0  0
    4.7320   -1.5000    0.0000 C   0  0  0  0  0  0  0  0  0  0  0  0
    5.5981   -0.0000    0.0000 C   0  0  0  0  0  0  0  0  0  0  0  0
    4.7320    1.5000    0.0000 C   0  0  0  0  0  0  0  0  0  0  0  0
    4.7320    2.5000    0.0000 C   0  0  0  0  0  0  0  0  0  0  0  0
    5.5981    3.0000    0.0000 C   0  0  0  0  0  0  0  0  0  0  0  0
    4.4030    0.3100    0.0000 H   0  0  0  0  0  0  0  0  0  0  0  0
    2.3894   -1.3923    0.0000 H   0  0  0  0  0  0  0  0  0  0  0  0
    2.7880   -2.0826    0.0000 H   0  0  0  0  0  0  0  0  0  0  0  0
    2.0000    0.1200    0.0000 H   0  0  0  0  0  0  0  0  0  0  0  0
    1.3800   -0.5000    0.0000 H   0  0  0  0  0  0  0  0  0  0  0  0
    2.0000   -1.1200    0.0000 H   0  0  0  0  0  0  0  0  0  0  0  0
    3.0369    0.6760    0.0000 H   0  0  0  0  0  0  0  0  0  0  0  0
    2.1900    0.9030    0.0000 H   0  0  0  0  0  0  0  0  0  0  0  0
    1.9631    0.0560    0.0000 H   0  0  0  0  0  0  0  0  0  0  0  0
    3.3291    1.3100    0.0000 H   0  0  0  0  0  0  0  0  0  0  0  0
    5.2690   -1.8100    0.0000 H   0  0  0  0  0  0  0  0  0  0  0  0
    5.9081   -0.5369    0.0000 H   0  0  0  0  0  0  0  0  0  0  0  0
    6.1350    0.3100    0.0000 H   0  0  0  0  0  0  0  0  0  0  0  0
    5.2881    0.5369    0.0000 H   0  0  0  0  0  0  0  0  0  0  0  0
    5.2690    1.1900    0.0000 H   0  0  0  0  0  0  0  0  0  0  0  0
    4.1951    2.8100    0.0000 H   0  0  0  0  0  0  0  0  0  0  0  0
    6.1350    2.6900    0.0000 H   0  0  0  0  0  0  0  0  0  0  0  0
    5.5981    3.6200    0.0000 H   0  0  0  0  0  0  0  0  0  0  0  0
  1  8  2  0  0  0  0
  2  3  1  0  0  0  0
  2  4  1  0  0  0  0
  2  6  1  0  0  0  0
  2  7  1  0  0  0  0
  3  5  1  0  0  0  0
  3  9  1  0  0  0  0
  3 15  1  0  0  0  0
  4  8  1  0  0  0  0
  4 16  1  0  0  0  0
  4 17  1  0  0  0  0
  5 10  2  0  0  0  0
  5 11  1  0  0  0  0
  6 18  1  0  0  0  0
  6 19  1  0  0  0  0
  6 20  1  0  0  0  0
  7 21  1  0  0  0  0
  7 22  1  0  0  0  0
  7 23  1  0  0  0  0
  8 10  1  0  0  0  0
  9 12  2  0  0  0  0
  9 24  1  0  0  0  0
 10 25  1  0  0  0  0
 11 26  1  0  0  0  0
 11 27  1  0  0  0  0
 11 28  1  0  0  0  0
 12 13  1  0  0  0  0
 12 29  1  0  0  0  0
 13 14  2  0  0  0  0
 13 30  1  0  0  0  0
 14 31  1  0  0  0  0
 14 32  1  0  0  0  0
M  END
> <PUBCHEM_COMPOUND_CID>
5375190

> <PUBCHEM_COMPOUND_CANONICALIZED>
1

> <PUBCHEM_CACTVS_COMPLEXITY>
305

> <PUBCHEM_CACTVS_HBOND_ACCEPTOR>
1

> <PUBCHEM_CACTVS_HBOND_DONOR>
0

> <PUBCHEM_CACTVS_ROTATABLE_BOND>
2

> <PUBCHEM_CACTVS_SUBSKEYS>
AAADceBwIAAAAAAAAAAAAAAAAAAAAAAAAAAgAAAAAAAAAAAAAAAAGgAAAAAADwSAgAACAAAAAACIAqBSAAAAAAAgAAAICAEAAEgIABIAAQAAAAAAgAAIgQMIiAAPgAAAAAAAAAAAAAAAAAAAAAAAAAAAAA==

> <PUBCHEM_IUPAC_OPENEYE_NAME>
4-[(1E)-buta-1,3-dienyl]-3,5,5-trimethyl-cyclohex-2-en-1-one

> <PUBCHEM_IUPAC_CAS_NAME>
4-[(1E)-buta-1,3-dienyl]-3,5,5-trimethyl-1-cyclohex-2-enone

> <PUBCHEM_IUPAC_NAME_MARKUP>
4-[(1<I>E</I>)-buta-1,3-dienyl]-3,5,5-trimethylcyclohex-2-en-1-one

> <PUBCHEM_IUPAC_NAME>
4-[(1E)-buta-1,3-dienyl]-3,5,5-trimethylcyclohex-2-en-1-one

> <PUBCHEM_IUPAC_SYSTEMATIC_NAME>
4-[(1E)-buta-1,3-dienyl]-3,5,5-trimethyl-cyclohex-2-en-1-one

> <PUBCHEM_IUPAC_TRADITIONAL_NAME>
4-[(1E)-buta-1,3-dienyl]-3,5,5-trimethyl-cyclohex-2-en-1-one

> <PUBCHEM_IUPAC_INCHI>
InChI=1S/C13H18O/c1-5-6-7-12-10(2)8-11(14)9-13(12,3)4/h5-8,12H,1,9H2,2-4H3/b7-6+

> <PUBCHEM_IUPAC_INCHIKEY>
YKVWPZJHENXDAJ-VOTSOKGWSA-N

> <PUBCHEM_XLOGP3_AA>
2.9

> <PUBCHEM_EXACT_MASS>
190.135765193

> <PUBCHEM_MOLECULAR_FORMULA>
C13H18O

> <PUBCHEM_MOLECULAR_WEIGHT>
190.28

> <PUBCHEM_OPENEYE_CAN_SMILES>
CC1=CC(=O)CC(C1C=CC=C)(C)C

> <PUBCHEM_OPENEYE_ISO_SMILES>
CC1=CC(=O)CC(C1/C=C/C=C)(C)C

> <PUBCHEM_CACTVS_TPSA>
17.1

> <PUBCHEM_MONOISOTOPIC_WEIGHT>
190.135765193

> <PUBCHEM_TOTAL_CHARGE>
0

> <PUBCHEM_HEAVY_ATOM_COUNT>
14

> <PUBCHEM_ATOM_DEF_STEREO_COUNT>
0

> <PUBCHEM_ATOM_UDEF_STEREO_COUNT>
1

> <PUBCHEM_BOND_DEF_STEREO_COUNT>
1

> <PUBCHEM_BOND_UDEF_STEREO_COUNT>
0

> <PUBCHEM_ISOTOPIC_ATOM_COUNT>
0

> <PUBCHEM_COMPONENT_COUNT>
1

> <PUBCHEM_CACTVS_TAUTO_COUNT>
-1

> <PUBCHEM_COORDINATE_TYPE>
1
5
255

> <PUBCHEM_BONDANNOTATIONS>
3  9  3

$$$$
