9838995
  -OEChem-02092319242D

 29 31  0     1  0  0  0  0  0999 V2000
    5.9685   -2.0630    0.0000 O   0  0  0  0  0  0  0  0  0  0  0  0
    3.8456   -2.8183    0.0000 O   0  0  0  0  0  0  0  0  0  0  0  0
    2.4615    0.0989    0.0000 O   0  0  0  0  0  0  0  0  0  0  0  0
    5.0807    1.4684    0.0000 O   0  0  0  0  0  0  0  0  0  0  0  0
    3.6182    1.3880    0.0000 O   0  0  0  0  0  0  0  0  0  0  0  0
    7.7006   -2.0630    0.0000 O   0  0  0  0  0  0  0  0  0  0  0  0
    6.8467    2.5062    0.0000 O   0  0  0  0  0  0  0  0  0  0  0  0
    8.6205    1.4821    0.0000 O   0  0  0  0  0  0  0  0  0  0  0  0
    4.1563   -0.2583    0.0000 C   0  0  3  0  0  0  0  0  0  0  0  0
    5.1025   -0.5630    0.0000 C   0  0  0  0  0  0  0  0  0  0  0  0
    3.5727   -1.0630    0.0000 C   0  0  0  0  0  0  0  0  0  0  0  0
    5.1025   -1.5630    0.0000 C   0  0  0  0  0  0  0  0  0  0  0  0
    5.9685   -0.0630    0.0000 C   0  0  0  0  0  0  0  0  0  0  0  0
    4.1563   -1.8678    0.0000 C   0  0  0  0  0  0  0  0  0  0  0  0
    6.8346   -0.5630    0.0000 C   0  0  0  0  0  0  0  0  0  0  0  0
    3.4120    0.4095    0.0000 C   0  0  0  0  0  0  0  0  0  0  0  0
    5.9525    0.9785    0.0000 C   0  0  0  0  0  0  0  0  0  0  0  0
    6.8346   -1.5630    0.0000 C   0  0  0  0  0  0  0  0  0  0  0  0
    7.7446   -0.0562    0.0000 C   0  0  0  0  0  0  0  0  0  0  0  0
    6.8505    1.5062    0.0000 C   0  0  0  0  0  0  0  0  0  0  0  0
    7.7526    0.9854    0.0000 C   0  0  0  0  0  0  0  0  0  0  0  0
    4.4651    0.2793    0.0000 H   0  0  0  0  0  0  0  0  0  0  0  0
    3.1118   -0.6483    0.0000 H   0  0  0  0  0  0  0  0  0  0  0  0
    3.1118   -1.4778    0.0000 H   0  0  0  0  0  0  0  0  0  0  0  0
    8.2779   -0.3724    0.0000 H   0  0  0  0  0  0  0  0  0  0  0  0
    2.0000    0.5129    0.0000 H   0  0  0  0  0  0  0  0  0  0  0  0
    5.0736    2.0884    0.0000 H   0  0  0  0  0  0  0  0  0  0  0  0
    7.3824    2.8183    0.0000 H   0  0  0  0  0  0  0  0  0  0  0  0
    9.1563    1.1700    0.0000 H   0  0  0  0  0  0  0  0  0  0  0  0
  1 12  1  0  0  0  0
  1 18  1  0  0  0  0
  2 14  2  0  0  0  0
  3 16  1  0  0  0  0
  3 26  1  0  0  0  0
  4 17  1  0  0  0  0
  4 27  1  0  0  0  0
  5 16  2  0  0  0  0
  6 18  2  0  0  0  0
  7 20  1  0  0  0  0
  7 28  1  0  0  0  0
  8 21  1  0  0  0  0
  8 29  1  0  0  0  0
  9 10  1  0  0  0  0
  9 11  1  0  0  0  0
  9 16  1  0  0  0  0
  9 22  1  0  0  0  0
 10 12  2  0  0  0  0
 10 13  1  0  0  0  0
 11 14  1  0  0  0  0
 11 23  1  0  0  0  0
 11 24  1  0  0  0  0
 12 14  1  0  0  0  0
 13 15  1  0  0  0  0
 13 17  2  0  0  0  0
 15 18  1  0  0  0  0
 15 19  2  0  0  0  0
 17 20  1  0  0  0  0
 19 21  1  0  0  0  0
 19 25  1  0  0  0  0
 20 21  2  0  0  0  0
M  END
> <PUBCHEM_COMPOUND_CID>
9838995

> <PUBCHEM_COMPOUND_CANONICALIZED>
1

> <PUBCHEM_CACTVS_COMPLEXITY>
565

> <PUBCHEM_CACTVS_HBOND_ACCEPTOR>
8

> <PUBCHEM_CACTVS_HBOND_DONOR>
4

> <PUBCHEM_CACTVS_ROTATABLE_BOND>
1

> <PUBCHEM_CACTVS_SUBSKEYS>
AAADccBwPAAAAAAAAAAAAAAAAAAAAQAAAAAwQAAAAAAAAEiBAAAAGgAACAAADQSAmAAwDoAABgCIAqDSCAICCAAkIAAAiAFGiMgJJzKCNB6CcQElwBUJuYfL7PzOoAABCAAYQABAAAIQADCAAAAAAAAAAA==

> <PUBCHEM_IUPAC_OPENEYE_NAME>
7,8,9-trihydroxy-3,5-dioxo-1,2-dihydrocyclopenta[c]isochromene-1-carboxylic acid

> <PUBCHEM_IUPAC_CAS_NAME>
7,8,9-trihydroxy-3,5-dioxo-1,2-dihydrocyclopenta[c][2]benzopyran-1-carboxylic acid

> <PUBCHEM_IUPAC_NAME_MARKUP>
7,8,9-trihydroxy-3,5-dioxo-1,2-dihydrocyclopenta[c]isochromene-1-carboxylic acid

> <PUBCHEM_IUPAC_NAME>
7,8,9-trihydroxy-3,5-dioxo-1,2-dihydrocyclopenta[c]isochromene-1-carboxylic acid

> <PUBCHEM_IUPAC_SYSTEMATIC_NAME>
7,8,9-tris(oxidanyl)-3,5-bis(oxidanylidene)-1,2-dihydrocyclopenta[c]isochromene-1-carboxylic acid

> <PUBCHEM_IUPAC_TRADITIONAL_NAME>
7,8,9-trihydroxy-3,5-diketo-1,2-dihydrocyclopent[c]isochromene-1-carboxylic acid

> <PUBCHEM_IUPAC_INCHI>
InChI=1S/C13H8O8/c14-5-2-4-7(10(17)9(5)16)8-3(12(18)19)1-6(15)11(8)21-13(4)20/h2-3,14,16-17H,1H2,(H,18,19)

> <PUBCHEM_IUPAC_INCHIKEY>
JFJWMFPFMLRLMI-UHFFFAOYSA-N

> <PUBCHEM_XLOGP3_AA>
-0.4

> <PUBCHEM_EXACT_MASS>
292.02191721

> <PUBCHEM_MOLECULAR_FORMULA>
C13H8O8

> <PUBCHEM_MOLECULAR_WEIGHT>
292.20

> <PUBCHEM_OPENEYE_CAN_SMILES>
C1C(C2=C(C1=O)OC(=O)C3=CC(=C(C(=C32)O)O)O)C(=O)O

> <PUBCHEM_OPENEYE_ISO_SMILES>
C1C(C2=C(C1=O)OC(=O)C3=CC(=C(C(=C32)O)O)O)C(=O)O

> <PUBCHEM_CACTVS_TPSA>
141

> <PUBCHEM_MONOISOTOPIC_WEIGHT>
292.02191721

> <PUBCHEM_TOTAL_CHARGE>
0

> <PUBCHEM_HEAVY_ATOM_COUNT>
21

> <PUBCHEM_ATOM_DEF_STEREO_COUNT>
0

> <PUBCHEM_ATOM_UDEF_STEREO_COUNT>
1

> <PUBCHEM_BOND_DEF_STEREO_COUNT>
0

> <PUBCHEM_BOND_UDEF_STEREO_COUNT>
0

> <PUBCHEM_ISOTOPIC_ATOM_COUNT>
0

> <PUBCHEM_COMPONENT_COUNT>
1

> <PUBCHEM_CACTVS_TAUTO_COUNT>
363

> <PUBCHEM_COORDINATE_TYPE>
1
5
255

> <PUBCHEM_BONDANNOTATIONS>
1  12  8
1  18  8
10  12  8
10  13  8
13  15  8
13  17  8
15  18  8
15  19  8
17  20  8
19  21  8
20  21  8
9  16  3

$$$$
