@<TRIPOS>MOLECULE
10010849
 99 108 0 0 0
SMALL
GASTEIGER

@<TRIPOS>ATOM
      1 O           6.6345    2.9611    0.0000 O.3     1  UNL1       -0.4444
      2 O          10.0994    3.0746    0.0000 O.3     1  UNL1       -0.4444
      3 O           8.0445   -0.1852    0.0000 O.3     1  UNL1       -0.4808
      4 O           7.4311    5.1209    0.0000 O.3     1  UNL1       -0.3827
      5 O           6.9482   -2.7496    0.0000 O.3     1  UNL1       -0.3868
      6 O           6.0107   -3.1497    0.0000 O.3     1  UNL1       -0.4808
      7 O           4.3657    0.7649    0.0000 O.3     1  UNL1       -0.5062
      8 O           9.0433   -0.1398    0.0000 O.3     1  UNL1       -0.5062
      9 O           3.8026   -0.2063    0.0000 O.3     1  UNL1       -0.5062
     10 O           4.9267   -5.6390    0.0000 O.3     1  UNL1       -0.3875
     11 O          12.5417    0.4004    0.0000 O.3     1  UNL1       -0.5065
     12 O           2.5127   -2.8846    0.0000 O.3     1  UNL1       -0.5063
     13 O          11.1172    5.7217    0.0000 O.3     1  UNL1       -0.5033
     14 O           9.7030    7.1359    0.0000 O.3     1  UNL1       -0.5033
     15 O           9.5400   -4.3644    0.0000 O.3     1  UNL1       -0.5033
     16 O          11.3274   -3.4669    0.0000 O.3     1  UNL1       -0.5033
     17 O           7.4606   -7.3025    0.0000 O.3     1  UNL1       -0.5033
     18 O           9.2582   -6.4258    0.0000 O.3     1  UNL1       -0.5033
     19 C           8.4089    2.3063    0.0000 C.3     1  UNL1        0.0567
     20 C           7.9311    4.2548    0.0000 C.3     1  UNL1        0.1477
     21 C           8.6677    3.2722    0.0000 C.3     1  UNL1        0.3074
     22 C           7.1879    1.4406    0.0000 C.ar    1  UNL1        0.0469
     23 C           6.1146   -1.1450    0.0000 C.3     1  UNL1        0.0528
     24 C           7.1313    0.4005    0.0000 C.ar    1  UNL1        0.1361
     25 C           6.1986   -0.0633    0.0000 C.ar    1  UNL1        0.0463
     26 C           7.0141   -1.7517    0.0000 C.3     1  UNL1        0.1074
     27 C           9.6806    1.5116    0.0000 C.ar    1  UNL1        0.0463
     28 C           6.3589    1.9998    0.0000 C.ar    1  UNL1        0.1365
     29 C           7.9856   -1.2686    0.0000 C.3     1  UNL1        0.1519
     30 C           5.2141   -1.5799    0.0000 C.ar    1  UNL1        0.0463
     31 C          10.4577    2.1410    0.0000 C.ar    1  UNL1        0.1365
     32 C           8.9266    4.2381    0.0000 C.ar    1  UNL1        0.0424
     33 C           5.3350    0.5192    0.0000 C.ar    1  UNL1        0.1277
     34 C           5.4157    1.5577    0.0000 C.ar    1  UNL1        0.0225
     35 C           5.1405   -2.5772    0.0000 C.ar    1  UNL1        0.1355
     36 C           9.8277    0.4805    0.0000 C.ar    1  UNL1        0.1276
     37 C           8.8210   -1.8182    0.0000 C.ar    1  UNL1       -0.0012
     38 C           4.2400   -3.0121    0.0000 C.ar    1  UNL1        0.0387
     39 C           4.3872   -1.0175    0.0000 C.ar    1  UNL1        0.1277
     40 C          11.4358    1.7827    0.0000 C.ar    1  UNL1        0.0222
     41 C           4.1473   -4.0496    0.0000 C.3     1  UNL1        0.0092
     42 C           5.9421   -4.1890    0.0000 C.3     1  UNL1        0.1513
     43 C           5.0041   -4.6420    0.0000 C.3     1  UNL1        0.1004
     44 C           9.8925    4.4970    0.0000 C.ar    1  UNL1       -0.0059
     45 C           8.2194    4.9452    0.0000 C.ar    1  UNL1       -0.0475
     46 C          10.7972    0.0997    0.0000 C.ar    1  UNL1        0.0218
     47 C          11.6067    0.7552    0.0000 C.ar    1  UNL1        0.1238
     48 C           3.4131   -2.4497    0.0000 C.ar    1  UNL1        0.1271
     49 C           3.4867   -1.4524    0.0000 C.ar    1  UNL1        0.0221
     50 C           8.7628   -2.8165    0.0000 C.ar    1  UNL1       -0.0098
     51 C           9.7147   -1.3694    0.0000 C.ar    1  UNL1       -0.0513
     52 C          10.1513    5.4629    0.0000 C.ar    1  UNL1        0.1587
     53 C           8.4783    5.9112    0.0000 C.ar    1  UNL1       -0.0160
     54 C           6.7711   -4.7482    0.0000 C.ar    1  UNL1       -0.0012
     55 C           9.4442    6.1700    0.0000 C.ar    1  UNL1        0.1582
     56 C           9.5982   -3.3660    0.0000 C.ar    1  UNL1        0.1586
     57 C          10.5501   -1.9190    0.0000 C.ar    1  UNL1       -0.0162
     58 C          10.4919   -2.9173    0.0000 C.ar    1  UNL1        0.1582
     59 C           6.7014   -5.7458    0.0000 C.ar    1  UNL1       -0.0098
     60 C           7.6699   -4.3098    0.0000 C.ar    1  UNL1       -0.0513
     61 C           7.5304   -6.3050    0.0000 C.ar    1  UNL1        0.1586
     62 C           8.4989   -4.8690    0.0000 C.ar    1  UNL1       -0.0162
     63 C           8.4292   -5.8666    0.0000 C.ar    1  UNL1        0.1582
     64 H           8.1889    1.4853    0.0000 H       1  UNL1        0.0430
     65 H           8.4486    4.5964    0.0000 H       1  UNL1        0.0685
     66 H           6.0536   -1.9928    0.0000 H       1  UNL1        0.0429
     67 H           6.4574   -2.0246    0.0000 H       1  UNL1        0.0643
     68 H           7.9483   -1.8875    0.0000 H       1  UNL1        0.0811
     69 H           4.9058    1.9103    0.0000 H       1  UNL1        0.0691
     70 H           6.8111    5.1209    0.0000 H       1  UNL1        0.2102
     71 H          11.9131    2.1785    0.0000 H       1  UNL1        0.0691
     72 H           3.5484   -3.8896    0.0000 H       1  UNL1        0.0342
     73 H           3.8872   -4.6124    0.0000 H       1  UNL1        0.0342
     74 H           7.4635   -3.0943    0.0000 H       1  UNL1        0.2100
     75 H           6.4988   -3.9162    0.0000 H       1  UNL1        0.0811
     76 H           5.5161   -4.9917    0.0000 H       1  UNL1        0.0637
     77 H          10.3309    4.0586    0.0000 H       1  UNL1        0.0660
     78 H           7.6206    4.7848    0.0000 H       1  UNL1        0.0624
     79 H          10.8918   -0.5131    0.0000 H       1  UNL1        0.0691
     80 H           2.9741   -1.1038    0.0000 H       1  UNL1        0.0691
     81 H           8.2087   -3.0947    0.0000 H       1  UNL1        0.0659
     82 H           4.1972    1.3616    0.0000 H       1  UNL1        0.2921
     83 H           9.7508   -0.7505    0.0000 H       1  UNL1        0.0623
     84 H           8.0399    6.3496    0.0000 H       1  UNL1        0.0655
     85 H           9.1332   -0.7533    0.0000 H       1  UNL1        0.2921
     86 H           3.1857   -0.2687    0.0000 H       1  UNL1        0.2921
     87 H          11.1042   -1.6408    0.0000 H       1  UNL1        0.0655
     88 H           4.3673   -5.9065    0.0000 H       1  UNL1        0.2100
     89 H          13.0220    0.7925    0.0000 H       1  UNL1        0.2921
     90 H           2.0000   -2.5360    0.0000 H       1  UNL1        0.2921
     91 H           6.1441   -6.0176    0.0000 H       1  UNL1        0.0659
     92 H           7.7132   -3.6914    0.0000 H       1  UNL1        0.0623
     93 H          11.2777    6.3206    0.0000 H       1  UNL1        0.2923
     94 H           9.2646    7.5743    0.0000 H       1  UNL1        0.2923
     95 H           9.0562   -4.5972    0.0000 H       1  UNL1        0.0655
     96 H          10.0580   -4.7051    0.0000 H       1  UNL1        0.2923
     97 H          11.8814   -3.1887    0.0000 H       1  UNL1        0.2923
     98 H           6.9034   -7.5743    0.0000 H       1  UNL1        0.2923
     99 H           9.2150   -7.0443    0.0000 H       1  UNL1        0.2923
@<TRIPOS>BOND
     1     1    21    1
     2     1    28    1
     3     2    21    1
     4     2    31    1
     5     3    24    1
     6     3    29    1
     7    20     4    1
     8     4    70    1
     9    26     5    1
    10     5    74    1
    11     6    35    1
    12     6    42    1
    13     7    33    1
    14     7    82    1
    15     8    36    1
    16     8    85    1
    17     9    39    1
    18     9    86    1
    19    43    10    1
    20    10    88    1
    21    11    47    1
    22    11    89    1
    23    12    48    1
    24    12    90    1
    25    13    52    1
    26    13    93    1
    27    14    55    1
    28    14    94    1
    29    15    56    1
    30    15    96    1
    31    16    58    1
    32    16    97    1
    33    17    61    1
    34    17    98    1
    35    18    63    1
    36    18    99    1
    37    19    20    1
    38    19    22    1
    39    19    27    1
    40    19    64    1
    41    20    21    1
    42    20    65    1
    43    21    32    1
    44    22    24   ar
    45    22    28   ar
    46    23    25    1
    47    23    26    1
    48    23    30    1
    49    23    66    1
    50    24    25   ar
    51    25    33   ar
    52    26    29    1
    53    26    67    1
    54    27    31   ar
    55    27    36   ar
    56    28    34   ar
    57    29    37    1
    58    29    68    1
    59    30    35   ar
    60    30    39   ar
    61    31    40   ar
    62    32    44   ar
    63    32    45   ar
    64    33    34   ar
    65    34    69    1
    66    35    38   ar
    67    36    46   ar
    68    37    50   ar
    69    37    51   ar
    70    38    41    1
    71    38    48   ar
    72    39    49   ar
    73    40    47   ar
    74    40    71    1
    75    41    43    1
    76    41    72    1
    77    41    73    1
    78    42    43    1
    79    42    54    1
    80    42    75    1
    81    43    76    1
    82    44    52   ar
    83    44    77    1
    84    45    53   ar
    85    45    78    1
    86    46    47   ar
    87    46    79    1
    88    48    49   ar
    89    49    80    1
    90    50    56   ar
    91    50    81    1
    92    51    57   ar
    93    51    83    1
    94    52    55   ar
    95    53    55   ar
    96    53    84    1
    97    54    59   ar
    98    54    60   ar
    99    56    58   ar
   100    57    58   ar
   101    57    87    1
   102    59    61   ar
   103    59    91    1
   104    60    62   ar
   105    60    92    1
   106    61    63   ar
   107    62    63   ar
   108    62    95    1
