@<TRIPOS>MOLECULE
101681
 30 31 0 0 0
SMALL
GASTEIGER

@<TRIPOS>ATOM
      1 N           5.9134   -1.2950    0.0000 N.3     1  UNL1       -0.3152
      2 C           3.8634   -0.9886    0.0000 C.3     1  UNL1       -0.0141
      3 C           4.3412    0.9600    0.0000 C.3     1  UNL1       -0.0244
      4 C           3.6045   -0.0226    0.0000 C.3     1  UNL1       -0.0228
      5 C           2.4644   -1.4974    0.0000 C.3     1  UNL1       -0.0457
      6 C           2.2056   -0.5315    0.0000 C.3     1  UNL1       -0.0480
      7 C           5.0844   -1.8542    0.0000 C.3     1  UNL1        0.0018
      8 C           5.6378   -0.3338    0.0000 C.3     1  UNL1       -0.0007
      9 C           4.1222   -1.9545    0.0000 C.3     1  UNL1       -0.0579
     10 C           4.2366    1.9545    0.0000 C.3     1  UNL1       -0.0590
     11 C           5.2547    1.3667    0.0000 C.3     1  UNL1       -0.0590
     12 H           3.3845    0.7984    0.0000 H       1  UNL1        0.0318
     13 H           2.6594   -2.0860    0.0000 H       1  UNL1        0.0271
     14 H           1.8704   -1.6752    0.0000 H       1  UNL1        0.0271
     15 H           1.6116   -0.7092    0.0000 H       1  UNL1        0.0269
     16 H           2.0107    0.0571    0.0000 H       1  UNL1        0.0269
     17 H           5.4902   -2.3229    0.0000 H       1  UNL1        0.0429
     18 H           4.6677   -2.3134    0.0000 H       1  UNL1        0.0429
     19 H           5.6428    0.2862    0.0000 H       1  UNL1        0.0427
     20 H           6.2521   -0.2500    0.0000 H       1  UNL1        0.0427
     21 H           4.7210   -1.7940    0.0000 H       1  UNL1        0.0236
     22 H           4.2826   -2.5534    0.0000 H       1  UNL1        0.0236
     23 H           3.5233   -2.1150    0.0000 H       1  UNL1        0.0236
     24 H           3.6200    1.8897    0.0000 H       1  UNL1        0.0235
     25 H           4.1718    2.5711    0.0000 H       1  UNL1        0.0235
     26 H           4.8532    2.0193    0.0000 H       1  UNL1        0.0235
     27 H           5.0025    1.9331    0.0000 H       1  UNL1        0.0235
     28 H           5.8211    1.6189    0.0000 H       1  UNL1        0.0235
     29 H           5.5069    0.8003    0.0000 H       1  UNL1        0.0235
     30 H           6.4960   -1.5071    0.0000 H       1  UNL1        0.1220
@<TRIPOS>BOND
     1     1     7    1
     2     1     8    1
     3     1    30    1
     4     2     3    1
     5     2     5    1
     6     2     7    1
     7     2     9    1
     8     3     4    1
     9     3    10    1
    10     3    11    1
    11     4     6    1
    12     4     8    1
    13     4    12    1
    14     5     6    1
    15     5    13    1
    16     5    14    1
    17     6    15    1
    18     6    16    1
    19     7    17    1
    20     7    18    1
    21     8    19    1
    22     8    20    1
    23     9    21    1
    24     9    22    1
    25     9    23    1
    26    10    24    1
    27    10    25    1
    28    10    26    1
    29    11    27    1
    30    11    28    1
    31    11    29    1
