@<TRIPOS>MOLECULE
102333899
 76 79 0 0 0
SMALL
GASTEIGER

@<TRIPOS>ATOM
      1 O           6.8671   -2.5950    0.0000 O.3     1  UNL1       -0.3366
      2 O           7.8376   -1.1005    0.0000 O.3     1  UNL1       -0.3456
      3 O           5.1350   -0.5950    0.0000 O.3     1  UNL1       -0.3313
      4 O          10.1818   -1.2586    0.0000 O.3     1  UNL1       -0.3801
      5 O           8.8546   -3.4799    0.0000 O.3     1  UNL1       -0.3837
      6 O           5.1350   -3.5950    0.0000 O.3     1  UNL1       -0.3863
      7 O           6.8671   -0.5950    0.0000 O.3     1  UNL1       -0.4607
      8 O           3.4030   -2.5950    0.0000 O.3     1  UNL1       -0.3865
      9 O          11.0100   -2.1187    0.0000 O.3     1  UNL1       -0.4581
     10 O           2.5369   -1.0950    0.0000 O.3     1  UNL1       -0.3924
     11 O          11.5452   -3.7660    0.0000 O.2     1  UNL1       -0.2450
     12 O           8.5991    2.4050    0.0000 O.3     1  UNL1       -0.4913
     13 O           6.8671    3.4050    0.0000 O.3     1  UNL1       -0.4914
     14 O          14.0710   -0.2135    0.0000 O.3     1  UNL1       -0.4914
     15 O          15.5573   -1.5518    0.0000 O.3     1  UNL1       -0.5033
     16 C           9.3158   -1.7586    0.0000 C.3     1  UNL1        0.1534
     17 C           6.0010   -2.0950    0.0000 C.3     1  UNL1        0.1519
     18 C           8.6466   -2.5017    0.0000 C.3     1  UNL1        0.1398
     19 C           7.7331   -2.0950    0.0000 C.3     1  UNL1        0.1886
     20 C           5.1350   -2.5950    0.0000 C.3     1  UNL1        0.1155
     21 C           4.2690   -2.0950    0.0000 C.3     1  UNL1        0.1120
     22 C           6.0010   -1.0950    0.0000 C.3     1  UNL1        0.2312
     23 C           8.8158   -0.8926    0.0000 C.3     1  UNL1        0.0853
     24 C           4.2690   -1.0950    0.0000 C.3     1  UNL1        0.1140
     25 C          10.0589   -2.4277    0.0000 C.3     1  UNL1        0.1262
     26 C           3.4030   -0.5950    0.0000 C.3     1  UNL1        0.0731
     27 C           6.8671    0.4050    0.0000 C.ar    1  UNL1        0.1277
     28 C          11.7531   -2.7878    0.0000 C.2     1  UNL1        0.3394
     29 C           7.7331    0.9050    0.0000 C.ar    1  UNL1        0.0255
     30 C           6.0010    0.9050    0.0000 C.ar    1  UNL1       -0.0161
     31 C          12.7042   -2.4788    0.0000 C.ar    1  UNL1        0.0627
     32 C           7.7331    1.9050    0.0000 C.ar    1  UNL1        0.1649
     33 C           6.0010    1.9050    0.0000 C.ar    1  UNL1       -0.0128
     34 C           6.8671    2.4050    0.0000 C.ar    1  UNL1        0.1617
     35 C          12.9121   -1.5007    0.0000 C.ar    1  UNL1       -0.0023
     36 C          13.4473   -3.1479    0.0000 C.ar    1  UNL1       -0.0441
     37 C          13.8631   -1.1917    0.0000 C.ar    1  UNL1        0.1620
     38 C          14.3984   -2.8389    0.0000 C.ar    1  UNL1       -0.0157
     39 C          14.6063   -1.8608    0.0000 C.ar    1  UNL1        0.1585
     40 C           8.5991    3.4050    0.0000 C.3     1  UNL1        0.0790
     41 C           6.0010    3.9050    0.0000 C.3     1  UNL1        0.0790
     42 C          15.0221    0.0955    0.0000 C.3     1  UNL1        0.0790
     43 H           6.0010   -2.7150    0.0000 H       1  UNL1        0.0687
     44 H           9.2455   -2.6622    0.0000 H       1  UNL1        0.0675
     45 H           7.7655   -2.7142    0.0000 H       1  UNL1        0.0938
     46 H           4.5981   -2.9050    0.0000 H       1  UNL1        0.0648
     47 H           4.2690   -2.7150    0.0000 H       1  UNL1        0.0647
     48 H           6.5380   -1.4050    0.0000 H       1  UNL1        0.1084
     49 H           9.3822   -0.6404    0.0000 H       1  UNL1        0.0591
     50 H           8.6242   -0.3029    0.0000 H       1  UNL1        0.0591
     51 H           4.2690   -0.4750    0.0000 H       1  UNL1        0.0647
     52 H           9.5703   -2.8094    0.0000 H       1  UNL1        0.0728
     53 H          10.3500   -2.9752    0.0000 H       1  UNL1        0.0728
     54 H           3.8015   -0.1201    0.0000 H       1  UNL1        0.0584
     55 H           3.0044   -0.1201    0.0000 H       1  UNL1        0.0584
     56 H          10.1818   -0.6386    0.0000 H       1  UNL1        0.2105
     57 H           8.3938   -3.8948    0.0000 H       1  UNL1        0.2101
     58 H           4.5981   -3.9050    0.0000 H       1  UNL1        0.2100
     59 H           3.4030   -3.2150    0.0000 H       1  UNL1        0.2100
     60 H           2.0000   -0.7850    0.0000 H       1  UNL1        0.2095
     61 H           8.2700    0.5950    0.0000 H       1  UNL1        0.0692
     62 H           5.4641    0.5950    0.0000 H       1  UNL1        0.0655
     63 H           5.4641    2.2150    0.0000 H       1  UNL1        0.0656
     64 H          12.4513   -1.0858    0.0000 H       1  UNL1        0.0663
     65 H          13.3184   -3.7544    0.0000 H       1  UNL1        0.0627
     66 H          14.8591   -3.2538    0.0000 H       1  UNL1        0.0655
     67 H           9.2191    3.4050    0.0000 H       1  UNL1        0.0660
     68 H           8.5991    4.0250    0.0000 H       1  UNL1        0.0660
     69 H           7.9791    3.4050    0.0000 H       1  UNL1        0.0660
     70 H           6.3110    4.4419    0.0000 H       1  UNL1        0.0660
     71 H           5.4641    4.2150    0.0000 H       1  UNL1        0.0660
     72 H           5.6910    3.3681    0.0000 H       1  UNL1        0.0660
     73 H          16.0181   -1.9666    0.0000 H       1  UNL1        0.2923
     74 H          15.2137   -0.4941    0.0000 H       1  UNL1        0.0660
     75 H          15.6118    0.2871    0.0000 H       1  UNL1        0.0660
     76 H          14.8305    0.6852    0.0000 H       1  UNL1        0.0660
@<TRIPOS>BOND
     1    17     1    1
     2    19     1    1
     3     2    19    1
     4     2    23    1
     5     3    22    1
     6     3    24    1
     7    16     4    1
     8     4    56    1
     9    18     5    1
    10     5    57    1
    11    20     6    1
    12     6    58    1
    13    22     7    1
    14     7    27    1
    15    21     8    1
    16     8    59    1
    17     9    25    1
    18     9    28    1
    19    10    26    1
    20    10    60    1
    21    11    28    2
    22    12    32    1
    23    12    40    1
    24    13    34    1
    25    13    41    1
    26    14    37    1
    27    14    42    1
    28    15    39    1
    29    15    73    1
    30    16    18    1
    31    16    23    1
    32    16    25    1
    33    17    20    1
    34    17    22    1
    35    17    43    1
    36    18    19    1
    37    18    44    1
    38    19    45    1
    39    20    21    1
    40    20    46    1
    41    21    24    1
    42    21    47    1
    43    22    48    1
    44    23    49    1
    45    23    50    1
    46    24    26    1
    47    24    51    1
    48    25    52    1
    49    25    53    1
    50    26    54    1
    51    26    55    1
    52    27    29   ar
    53    27    30   ar
    54    28    31    1
    55    29    32   ar
    56    29    61    1
    57    30    33   ar
    58    30    62    1
    59    31    35   ar
    60    31    36   ar
    61    32    34   ar
    62    33    34   ar
    63    33    63    1
    64    35    37   ar
    65    35    64    1
    66    36    38   ar
    67    36    65    1
    68    37    39   ar
    69    38    39   ar
    70    38    66    1
    71    40    67    1
    72    40    68    1
    73    40    69    1
    74    41    70    1
    75    41    71    1
    76    41    72    1
    77    42    74    1
    78    42    75    1
    79    42    76    1
