@<TRIPOS>MOLECULE
11629959
 40 40 0 0 0
SMALL
GASTEIGER

@<TRIPOS>ATOM
      1 O          10.6603   -1.0000    0.0000 O.3     1  UNL1       -0.4580
      2 O          12.3923   -1.0000    0.0000 O.2     1  UNL1       -0.2456
      3 C           8.0622   -0.5000    0.0000 C.3     1  UNL1       -0.0497
      4 C           7.1962   -1.0000    0.0000 C.3     1  UNL1       -0.0529
      5 C           8.9282   -1.0000    0.0000 C.3     1  UNL1       -0.0154
      6 C           6.3301   -0.5000    0.0000 C.3     1  UNL1       -0.0531
      7 C           9.7942   -0.5000    0.0000 C.3     1  UNL1        0.1068
      8 C           5.4641   -1.0000    0.0000 C.3     1  UNL1       -0.0531
      9 C           4.5981   -0.5000    0.0000 C.3     1  UNL1       -0.0531
     10 C           9.7942    0.5000    0.0000 C.3     1  UNL1        0.0031
     11 C           3.7320   -1.0000    0.0000 C.3     1  UNL1       -0.0533
     12 C           2.8660   -0.5000    0.0000 C.3     1  UNL1       -0.0559
     13 C          10.6603    1.0000    0.0000 C.2     1  UNL1       -0.0738
     14 C          11.5263   -0.5000    0.0000 C.2     1  UNL1        0.3319
     15 C          11.5263    0.5000    0.0000 C.2     1  UNL1        0.0187
     16 C           2.0000   -1.0000    0.0000 C.3     1  UNL1       -0.0653
     17 H           8.4607   -0.0251    0.0000 H       1  UNL1        0.0266
     18 H           7.6636   -0.0251    0.0000 H       1  UNL1        0.0266
     19 H           6.7976   -1.4750    0.0000 H       1  UNL1        0.0265
     20 H           7.5947   -1.4750    0.0000 H       1  UNL1        0.0265
     21 H           8.5297   -1.4750    0.0000 H       1  UNL1        0.0301
     22 H           9.3267   -1.4750    0.0000 H       1  UNL1        0.0301
     23 H           6.7287   -0.0251    0.0000 H       1  UNL1        0.0265
     24 H           5.9316   -0.0251    0.0000 H       1  UNL1        0.0265
     25 H           9.7942   -1.1200    0.0000 H       1  UNL1        0.0737
     26 H           5.0656   -1.4750    0.0000 H       1  UNL1        0.0265
     27 H           5.8626   -1.4750    0.0000 H       1  UNL1        0.0265
     28 H           4.9966   -0.0251    0.0000 H       1  UNL1        0.0265
     29 H           4.1996   -0.0251    0.0000 H       1  UNL1        0.0265
     30 H           9.5822    1.0826    0.0000 H       1  UNL1        0.0343
     31 H           9.1836    0.3923    0.0000 H       1  UNL1        0.0343
     32 H           3.3335   -1.4750    0.0000 H       1  UNL1        0.0265
     33 H           4.1306   -1.4750    0.0000 H       1  UNL1        0.0265
     34 H           3.2646   -0.0251    0.0000 H       1  UNL1        0.0263
     35 H           2.4675   -0.0251    0.0000 H       1  UNL1        0.0263
     36 H          10.6603    1.6200    0.0000 H       1  UNL1        0.0575
     37 H          12.0632    0.8100    0.0000 H       1  UNL1        0.0686
     38 H           1.6900   -0.4631    0.0000 H       1  UNL1        0.0230
     39 H           1.4631   -1.3100    0.0000 H       1  UNL1        0.0230
     40 H           2.3100   -1.5369    0.0000 H       1  UNL1        0.0230
@<TRIPOS>BOND
     1     1     7    1
     2     1    14    1
     3     2    14    2
     4     3     4    1
     5     3     5    1
     6     3    17    1
     7     3    18    1
     8     4     6    1
     9     4    19    1
    10     4    20    1
    11     7     5    1
    12     5    21    1
    13     5    22    1
    14     6     8    1
    15     6    23    1
    16     6    24    1
    17     7    10    1
    18     7    25    1
    19     8     9    1
    20     8    26    1
    21     8    27    1
    22     9    11    1
    23     9    28    1
    24     9    29    1
    25    10    13    1
    26    10    30    1
    27    10    31    1
    28    11    12    1
    29    11    32    1
    30    11    33    1
    31    12    16    1
    32    12    34    1
    33    12    35    1
    34    13    15    2
    35    13    36    1
    36    14    15    1
    37    15    37    1
    38    16    38    1
    39    16    39    1
    40    16    40    1
