@<TRIPOS>MOLECULE
11776892
 40 41 0 0 0
SMALL
GASTEIGER

@<TRIPOS>ATOM
      1 O           5.3539    1.7640    0.0000 O.3     1  UNL1       -0.3839
      2 O           7.1246   -1.1183    0.0000 O.3     1  UNL1       -0.3885
      3 O           2.1708    0.2481    0.0000 O.2     1  UNL1       -0.2876
      4 C           5.3639   -0.2360    0.0000 C.3     1  UNL1        0.0244
      5 C           5.3589    0.7640    0.0000 C.3     1  UNL1        0.0930
      6 C           6.3116   -0.5360    0.0000 C.3     1  UNL1        0.0694
      7 C           6.3036    1.0735    0.0000 C.3     1  UNL1       -0.0172
      8 C           6.8912    0.2717    0.0000 C.3     1  UNL1       -0.0210
      9 C           4.5852   -0.8633    0.0000 C.3     1  UNL1       -0.0157
     10 C           4.5740    1.3836    0.0000 C.2     1  UNL1       -0.0375
     11 C           6.0090   -1.4891    0.0000 C.3     1  UNL1       -0.0357
     12 C           3.6092   -0.6457    0.0000 C.2     1  UNL1       -0.0015
     13 C           3.6002    1.1562    0.0000 C.2     1  UNL1       -0.0130
     14 C           4.7916    2.3596    0.0000 C.3     1  UNL1       -0.0407
     15 C           3.1708    0.2531    0.0000 C.2     1  UNL1        0.1821
     16 C           2.9896   -1.4306    0.0000 C.2     1  UNL1       -0.0689
     17 C           3.3595   -2.3596    0.0000 C.3     1  UNL1       -0.0434
     18 C           2.0000   -1.2865    0.0000 C.3     1  UNL1       -0.0434
     19 H           5.5209   -1.0713    0.0000 H       1  UNL1        0.0363
     20 H           6.8394    1.3854    0.0000 H       1  UNL1        0.0297
     21 H           6.0497    1.6391    0.0000 H       1  UNL1        0.0297
     22 H           7.3541   -0.1408    0.0000 H       1  UNL1        0.0294
     23 H           7.3500    0.6887    0.0000 H       1  UNL1        0.0294
     24 H           4.3190   -1.4233    0.0000 H       1  UNL1        0.0319
     25 H           5.0718   -1.2475    0.0000 H       1  UNL1        0.0319
     26 H           5.4181   -1.3014    0.0000 H       1  UNL1        0.0257
     27 H           5.8214   -2.0800    0.0000 H       1  UNL1        0.0257
     28 H           6.5999   -1.6767    0.0000 H       1  UNL1        0.0257
     29 H           5.8893    2.0767    0.0000 H       1  UNL1        0.2106
     30 H           7.6892   -0.8623    0.0000 H       1  UNL1        0.2102
     31 H           3.2112    1.6390    0.0000 H       1  UNL1        0.0656
     32 H           5.3968    2.2247    0.0000 H       1  UNL1        0.0275
     33 H           4.9266    2.9648    0.0000 H       1  UNL1        0.0275
     34 H           4.1865    2.4946    0.0000 H       1  UNL1        0.0275
     35 H           2.7835   -2.5890    0.0000 H       1  UNL1        0.0274
     36 H           3.5889   -2.9356    0.0000 H       1  UNL1        0.0274
     37 H           3.9356   -2.1303    0.0000 H       1  UNL1        0.0274
     38 H           2.0894   -0.6730    0.0000 H       1  UNL1        0.0274
     39 H           1.3865   -1.1972    0.0000 H       1  UNL1        0.0274
     40 H           1.9106   -1.9000    0.0000 H       1  UNL1        0.0274
@<TRIPOS>BOND
     1     5     1    1
     2     1    29    1
     3     6     2    1
     4     2    30    1
     5     3    15    2
     6     4     5    1
     7     4     6    1
     8     4     9    1
     9     4    19    1
    10     5     7    1
    11     5    10    1
    12     6     8    1
    13     6    11    1
    14     7     8    1
    15     7    20    1
    16     7    21    1
    17     8    22    1
    18     8    23    1
    19     9    12    1
    20     9    24    1
    21     9    25    1
    22    10    13    2
    23    10    14    1
    24    11    26    1
    25    11    27    1
    26    11    28    1
    27    12    15    1
    28    12    16    2
    29    13    15    1
    30    13    31    1
    31    14    32    1
    32    14    33    1
    33    14    34    1
    34    16    17    1
    35    16    18    1
    36    17    35    1
    37    17    36    1
    38    17    37    1
    39    18    38    1
    40    18    39    1
    41    18    40    1
