@<TRIPOS>MOLECULE
13556556
 47 49 0 0 0
SMALL
GASTEIGER

@<TRIPOS>ATOM
      1 O           5.7024   -1.0173    0.0000 O.3     1  UNL1       -0.3825
      2 O           5.5685    0.4827    0.0000 O.3     1  UNL1       -0.4884
      3 O           5.5685   -3.5173    0.0000 O.2     1  UNL1       -0.3004
      4 N           3.2024   -0.1513    0.0000 N.ar    1  UNL1       -0.3339
      5 N           2.8660    1.4314    0.0000 N.ar    1  UNL1       -0.2441
      6 C           4.7024   -1.0173    0.0000 C.3     1  UNL1        0.1289
      7 C           4.7024   -2.0173    0.0000 C.3     1  UNL1        0.0539
      8 C           3.7024   -1.0173    0.0000 C.3     1  UNL1        0.0571
      9 C           4.7024   -0.0173    0.0000 C.3     1  UNL1        0.1208
     10 C           5.7024   -2.0173    0.0000 C.3     1  UNL1       -0.0505
     11 C           3.7024   -2.0173    0.0000 C.3     1  UNL1       -0.0505
     12 C           4.7024   -3.0173    0.0000 C.2     1  UNL1        0.1288
     13 C           2.2079   -0.0468    0.0000 C.ar    1  UNL1        0.0241
     14 C           3.6092    0.7622    0.0000 C.ar    1  UNL1        0.0960
     15 C           5.5685    1.4827    0.0000 C.ar    1  UNL1        0.1283
     16 C           6.4345    1.9827    0.0000 C.ar    1  UNL1        0.0238
     17 C           2.0000    0.9314    0.0000 C.ar    1  UNL1        0.0454
     18 C           4.7024    1.9827    0.0000 C.ar    1  UNL1       -0.0193
     19 C           6.4345    2.9827    0.0000 C.ar    1  UNL1       -0.0144
     20 C           7.3284    1.4480    0.0000 C.ar    1  UNL1       -0.0505
     21 C           4.7024    2.9827    0.0000 C.ar    1  UNL1       -0.0577
     22 C           5.5685    3.4827    0.0000 C.ar    1  UNL1       -0.0538
     23 C           7.3284    3.5173    0.0000 C.ar    1  UNL1       -0.0539
     24 C           8.2345    1.9618    0.0000 C.ar    1  UNL1       -0.0611
     25 C           8.2345    3.0035    0.0000 C.ar    1  UNL1       -0.0612
     26 H           3.1198   -1.2294    0.0000 H       1  UNL1        0.0522
     27 H           3.8101   -1.6279    0.0000 H       1  UNL1        0.0522
     28 H           4.4904    0.5653    0.0000 H       1  UNL1        0.0726
     29 H           4.0918   -0.1250    0.0000 H       1  UNL1        0.0726
     30 H           5.7024   -2.6373    0.0000 H       1  UNL1        0.0240
     31 H           6.3224   -2.0173    0.0000 H       1  UNL1        0.0240
     32 H           5.7024   -1.3973    0.0000 H       1  UNL1        0.0240
     33 H           3.7024   -1.3973    0.0000 H       1  UNL1        0.0240
     34 H           3.0824   -2.0173    0.0000 H       1  UNL1        0.0240
     35 H           3.7024   -2.6373    0.0000 H       1  UNL1        0.0240
     36 H           4.1655   -3.3273    0.0000 H       1  UNL1        0.1033
     37 H           6.0124   -0.4804    0.0000 H       1  UNL1        0.2104
     38 H           1.7930   -0.5075    0.0000 H       1  UNL1        0.0825
     39 H           4.2156    0.8911    0.0000 H       1  UNL1        0.1029
     40 H           1.4336    1.1836    0.0000 H       1  UNL1        0.0845
     41 H           4.1655    1.6727    0.0000 H       1  UNL1        0.0654
     42 H           7.3213    0.8280    0.0000 H       1  UNL1        0.0625
     43 H           4.1655    3.2927    0.0000 H       1  UNL1        0.0619
     44 H           5.5685    4.1027    0.0000 H       1  UNL1        0.0624
     45 H           7.3213    4.1373    0.0000 H       1  UNL1        0.0624
     46 H           8.7702    1.6498    0.0000 H       1  UNL1        0.0618
     47 H           8.7702    3.3156    0.0000 H       1  UNL1        0.0618
@<TRIPOS>BOND
     1     1     6    1
     2     1    37    1
     3     2     9    1
     4     2    15    1
     5     3    12    2
     6     4     8    1
     7     4    13   ar
     8     4    14   ar
     9     5    14   ar
    10     5    17   ar
    11     6     7    1
    12     6     8    1
    13     6     9    1
    14     7    10    1
    15     7    11    1
    16     7    12    1
    17     8    26    1
    18     8    27    1
    19     9    28    1
    20     9    29    1
    21    10    30    1
    22    10    31    1
    23    10    32    1
    24    11    33    1
    25    11    34    1
    26    11    35    1
    27    12    36    1
    28    13    17   ar
    29    13    38    1
    30    14    39    1
    31    15    16   ar
    32    15    18   ar
    33    16    19   ar
    34    16    20   ar
    35    17    40    1
    36    18    21   ar
    37    18    41    1
    38    19    22   ar
    39    19    23   ar
    40    20    24   ar
    41    20    42    1
    42    21    22   ar
    43    21    43    1
    44    22    44    1
    45    23    25   ar
    46    23    45    1
    47    24    25   ar
    48    24    46    1
    49    25    47    1
