@<TRIPOS>MOLECULE
157395
 95 102 0 0 0
SMALL
GASTEIGER

@<TRIPOS>ATOM
      1 O           9.1281   -0.5995    0.0000 O.3     1  UNL1       -0.4510
      2 O           8.7125   -1.4393    0.0000 O.3     1  UNL1       -0.4501
      3 O           7.4604    0.7701    0.0000 O.3     1  UNL1       -0.4501
      4 O          10.0458    1.9559    0.0000 O.3     1  UNL1       -0.3832
      5 O           7.4851   -1.9402    0.0000 O.3     1  UNL1       -0.4505
      6 O           6.1519    0.0485    0.0000 O.3     1  UNL1       -0.4573
      7 O          11.7942    1.9213    0.0000 O.3     1  UNL1       -0.5030
      8 O          11.0209   -1.2756    0.0000 O.2     1  UNL1       -0.2449
      9 O          13.5262   -1.0787    0.0000 O.3     1  UNL1       -0.5028
     10 O          13.5262    0.9213    0.0000 O.3     1  UNL1       -0.5009
     11 O           8.8970   -3.0603    0.0000 O.2     1  UNL1       -0.2449
     12 O          12.9868   -2.1315    0.0000 O.3     1  UNL1       -0.5028
     13 O           5.8138    0.4038    0.0000 O.2     1  UNL1       -0.2449
     14 O          12.7892   -4.0638    0.0000 O.3     1  UNL1       -0.5009
     15 O          11.0269   -4.8804    0.0000 O.3     1  UNL1       -0.5032
     16 O           7.3354   -3.6658    0.0000 O.2     1  UNL1       -0.2449
     17 O           5.7515    1.9135    0.0000 O.2     1  UNL1       -0.2449
     18 O           5.9066    4.5594    0.0000 O.3     1  UNL1       -0.5028
     19 O           4.9281    4.3861    0.0000 O.3     1  UNL1       -0.5028
     20 O           9.2385    3.3640    0.0000 O.3     1  UNL1       -0.5032
     21 O           7.9207    4.9321    0.0000 O.3     1  UNL1       -0.5009
     22 O           2.9085    4.0445    0.0000 O.3     1  UNL1       -0.5009
     23 O           2.2094    2.1192    0.0000 O.3     1  UNL1       -0.5032
     24 O           3.7737   -4.2261    0.0000 O.3     1  UNL1       -0.5032
     25 O           4.0730   -0.7750    0.0000 O.3     1  UNL1       -0.5032
     26 O           2.9271   -2.4141    0.0000 O.3     1  UNL1       -0.5009
     27 C           9.1281    0.4421    0.0000 C.3     1  UNL1        0.1735
     28 C           8.6112   -0.4303    0.0000 C.3     1  UNL1        0.1830
     29 C           7.6348   -0.2146    0.0000 C.3     1  UNL1        0.1834
     30 C          10.0342    0.9560    0.0000 C.3     1  UNL1        0.1249
     31 C          10.9281    0.4213    0.0000 C.ar    1  UNL1        0.0444
     32 C           7.0618   -1.0342    0.0000 C.3     1  UNL1        0.1774
     33 C          10.9281   -0.5787    0.0000 C.ar    1  UNL1        0.0798
     34 C          11.7942   -1.0787    0.0000 C.ar    1  UNL1        0.0462
     35 C          10.0342   -1.1133    0.0000 C.2     1  UNL1        0.3408
     36 C          11.7942    0.9213    0.0000 C.ar    1  UNL1        0.1687
     37 C           6.0655   -0.9478    0.0000 C.3     1  UNL1        0.1333
     38 C          11.3063   -1.9677    0.0000 C.ar    1  UNL1        0.0458
     39 C          12.6602   -0.5787    0.0000 C.ar    1  UNL1        0.1708
     40 C          10.3862   -2.3941    0.0000 C.ar    1  UNL1        0.0740
     41 C           9.3925   -2.1917    0.0000 C.2     1  UNL1        0.3405
     42 C          12.6602    0.4213    0.0000 C.ar    1  UNL1        0.2016
     43 C           6.5204    1.1114    0.0000 C.2     1  UNL1        0.3405
     44 C          12.0719   -2.5351    0.0000 C.ar    1  UNL1        0.1708
     45 C          10.3242   -3.3451    0.0000 C.ar    1  UNL1       -0.0017
     46 C           6.8617    2.0513    0.0000 C.ar    1  UNL1        0.0740
     47 C          11.9749   -3.4832    0.0000 C.ar    1  UNL1        0.2012
     48 C           6.9121   -2.7598    0.0000 C.2     1  UNL1        0.3399
     49 C          11.1103   -3.8839    0.0000 C.ar    1  UNL1        0.1628
     50 C           6.2184    2.8169    0.0000 C.ar    1  UNL1        0.0458
     51 C           5.5358    0.9370    0.0000 C.2     1  UNL1        0.3401
     52 C           5.2337    2.6425    0.0000 C.ar    1  UNL1        0.0458
     53 C           4.8924    1.7026    0.0000 C.ar    1  UNL1        0.0740
     54 C           7.8901    2.2171    0.0000 C.ar    1  UNL1       -0.0017
     55 C           5.9159   -2.6734    0.0000 C.ar    1  UNL1        0.0661
     56 C           6.5588    3.8013    0.0000 C.ar    1  UNL1        0.1708
     57 C           4.5759    3.4502    0.0000 C.ar    1  UNL1        0.1708
     58 C           8.2532    3.1934    0.0000 C.ar    1  UNL1        0.1628
     59 C           3.8696    1.5051    0.0000 C.ar    1  UNL1       -0.0017
     60 C           7.5830    3.9909    0.0000 C.ar    1  UNL1        0.2012
     61 C           3.5489    3.2764    0.0000 C.ar    1  UNL1        0.2012
     62 C           5.4926   -1.7674    0.0000 C.ar    1  UNL1       -0.0023
     63 C           5.3429   -3.4929    0.0000 C.ar    1  UNL1       -0.0023
     64 C           3.1934    2.2974    0.0000 C.ar    1  UNL1        0.1628
     65 C           4.3466   -3.4065    0.0000 C.ar    1  UNL1        0.1628
     66 C           4.4963   -1.6810    0.0000 C.ar    1  UNL1        0.1628
     67 C           3.9234   -2.5005    0.0000 C.ar    1  UNL1        0.2006
     68 H           8.6939    0.8847    0.0000 H       1  UNL1        0.0803
     69 H           8.1478   -0.8423    0.0000 H       1  UNL1        0.0812
     70 H           8.0823    0.2145    0.0000 H       1  UNL1        0.0812
     71 H           9.5003    1.2711    0.0000 H       1  UNL1        0.0684
     72 H           6.7066   -1.5423    0.0000 H       1  UNL1        0.0808
     73 H           5.4478   -0.8942    0.0000 H       1  UNL1        0.0736
     74 H           6.0120   -1.5655    0.0000 H       1  UNL1        0.0736
     75 H          10.5862    2.2597    0.0000 H       1  UNL1        0.2104
     76 H           9.7666   -3.6161    0.0000 H       1  UNL1        0.0664
     77 H          12.3311    2.2313    0.0000 H       1  UNL1        0.2923
     78 H          14.0631   -0.7687    0.0000 H       1  UNL1        0.2923
     79 H          13.5262    1.5413    0.0000 H       1  UNL1        0.2924
     80 H           8.2835    1.7379    0.0000 H       1  UNL1        0.0664
     81 H          13.4872   -2.4976    0.0000 H       1  UNL1        0.2923
     82 H           3.6648    0.9200    0.0000 H       1  UNL1        0.0664
     83 H          12.7299   -4.6809    0.0000 H       1  UNL1        0.2924
     84 H          10.4659   -5.1446    0.0000 H       1  UNL1        0.2923
     85 H           5.8478   -1.2592    0.0000 H       1  UNL1        0.0663
     86 H           5.6053   -4.0546    0.0000 H       1  UNL1        0.0663
     87 H           6.1115    5.1446    0.0000 H       1  UNL1        0.2923
     88 H           4.5347    4.8654    0.0000 H       1  UNL1        0.2923
     89 H           9.4524    3.9460    0.0000 H       1  UNL1        0.2923
     90 H           8.5308    5.0426    0.0000 H       1  UNL1        0.2924
     91 H           2.2976    3.9387    0.0000 H       1  UNL1        0.2924
     92 H           2.0000    1.5356    0.0000 H       1  UNL1        0.2923
     93 H           4.0361   -4.7878    0.0000 H       1  UNL1        0.2923
     94 H           3.4553   -0.7214    0.0000 H       1  UNL1        0.2923
     95 H           2.5718   -2.9223    0.0000 H       1  UNL1        0.2924
@<TRIPOS>BOND
     1     1    27    1
     2     1    35    1
     3     2    28    1
     4     2    41    1
     5     3    29    1
     6     3    43    1
     7     4    30    1
     8     4    75    1
     9     5    32    1
    10     5    48    1
    11     6    37    1
    12     6    51    1
    13     7    36    1
    14     7    77    1
    15     8    35    2
    16     9    39    1
    17     9    78    1
    18    10    42    1
    19    10    79    1
    20    11    41    2
    21    12    44    1
    22    12    81    1
    23    13    43    2
    24    14    47    1
    25    14    83    1
    26    15    49    1
    27    15    84    1
    28    16    48    2
    29    17    51    2
    30    18    56    1
    31    18    87    1
    32    19    57    1
    33    19    88    1
    34    20    58    1
    35    20    89    1
    36    21    60    1
    37    21    90    1
    38    22    61    1
    39    22    91    1
    40    23    64    1
    41    23    92    1
    42    24    65    1
    43    24    93    1
    44    25    66    1
    45    25    94    1
    46    26    67    1
    47    26    95    1
    48    27    28    1
    49    27    30    1
    50    27    68    1
    51    28    29    1
    52    28    69    1
    53    29    32    1
    54    29    70    1
    55    30    31    1
    56    30    71    1
    57    31    33   ar
    58    31    36   ar
    59    32    37    1
    60    32    72    1
    61    33    34   ar
    62    33    35    1
    63    34    38    1
    64    34    39   ar
    65    36    42   ar
    66    37    73    1
    67    37    74    1
    68    38    40   ar
    69    38    44   ar
    70    39    42   ar
    71    40    41    1
    72    40    45   ar
    73    43    46    1
    74    44    47   ar
    75    45    49   ar
    76    45    76    1
    77    46    50   ar
    78    46    54   ar
    79    47    49   ar
    80    48    55    1
    81    50    52    1
    82    50    56   ar
    83    51    53    1
    84    52    53   ar
    85    52    57   ar
    86    53    59   ar
    87    54    58   ar
    88    54    80    1
    89    55    62   ar
    90    55    63   ar
    91    56    60   ar
    92    57    61   ar
    93    58    60   ar
    94    59    64   ar
    95    59    82    1
    96    61    64   ar
    97    62    66   ar
    98    62    85    1
    99    63    65   ar
   100    63    86    1
   101    65    67   ar
   102    66    67   ar
