@<TRIPOS>MOLECULE
16133920
 382 412 0 0 0
SMALL
GASTEIGER

@<TRIPOS>ATOM
      1 O           5.3529  -48.0000    0.0000 O.3     1  UNL1       -0.4501
      2 O           3.8235  -47.8000    0.0000 O.3     1  UNL1       -0.3504
      3 O           6.5000  -38.1500    0.0000 O.3     1  UNL1       -0.4514
      4 O           1.6250  -36.3500    0.0000 O.3     1  UNL1       -0.3281
      5 O          10.8333  -37.8000    0.0000 O.3     1  UNL1       -0.4476
      6 O           7.3125  -50.3500    0.0000 O.3     1  UNL1       -0.3539
      7 O           8.9375  -50.1500    0.0000 O.3     1  UNL1       -0.3539
      8 O          22.1765  -47.8000    0.0000 O.3     2  UNL2       -0.4453
      9 O           9.7500  -32.3500    0.0000 O.3     1  UNL1       -0.4500
     10 O          14.6250  -36.3500    0.0000 O.3     2  UNL2       -0.3281
     11 O          19.5000  -38.1500    0.0000 O.3     2  UNL2       -0.4514
     12 O           2.1667  -40.3500    0.0000 O.3     1  UNL1       -0.4275
     13 O          23.8333  -37.8000    0.0000 O.3     2  UNL2       -0.4476
     14 O          16.0588  -47.8000    0.0000 O.3     2  UNL2       -0.3588
     15 O          17.5882  -48.0000    0.0000 O.3     2  UNL2       -0.3588
     16 O          21.9375  -50.1500    0.0000 O.3     2  UNL2       -0.3454
     17 O          22.7500  -32.3500    0.0000 O.3     2  UNL2       -0.4500
     18 O           8.4118  -48.1500    0.0000 O.2     1  UNL1       -0.2867
     19 O           1.0833  -30.3500    0.0000 O.3     1  UNL1       -0.4584
     20 O           3.9000  -42.1500    0.0000 O.2     1  UNL1       -0.2453
     21 O          10.5625  -49.8000    0.0000 O.3     1  UNL1       -0.5009
     22 O          15.1667  -40.3500    0.0000 O.3     2  UNL2       -0.4275
     23 O           9.1000  -42.0000    0.0000 O.2     1  UNL1       -0.2449
     24 O          11.4706  -48.0000    0.0000 O.3     1  UNL1       -0.5032
     25 O          20.6471  -48.1500    0.0000 O.2     2  UNL2       -0.2855
     26 O          14.0833  -30.3500    0.0000 O.3     2  UNL2       -0.4584
     27 O          16.9000  -42.1500    0.0000 O.2     2  UNL2       -0.2453
     28 O          23.5625  -49.8000    0.0000 O.3     2  UNL2       -0.5009
     29 O          22.1000  -42.0000    0.0000 O.2     2  UNL2       -0.2449
     30 O          25.2353  -48.3500    0.0000 O.3     2  UNL2       -0.5032
     31 O          11.9167  -32.1500    0.0000 O.2     1  UNL1       -0.2449
     32 O           1.0833  -44.3500    0.0000 O.2     1  UNL1       -0.2449
     33 O          24.9167  -32.1500    0.0000 O.2     2  UNL2       -0.2449
     34 O           3.2500  -30.1500    0.0000 O.2     1  UNL1       -0.2449
     35 O          14.0833  -44.3500    0.0000 O.2     2  UNL2       -0.2449
     36 O          16.2500  -30.1500    0.0000 O.2     2  UNL2       -0.2449
     37 O           5.4167  -29.8000    0.0000 O.3     1  UNL1       -0.5028
     38 O           0.8125  -24.3500    0.0000 O.3     1  UNL1       -0.5028
     39 O           8.1250  -33.8000    0.0000 O.3     1  UNL1       -0.5032
     40 O           4.5000  -20.3500    0.0000 O.3     1  UNL1       -0.4476
     41 O           0.6500  -18.3500    0.0000 O.3     1  UNL1       -0.4440
     42 O           5.4167  -31.8000    0.0000 O.3     1  UNL1       -0.5009
     43 O           1.6250   -6.3500    0.0000 O.3     1  UNL1       -0.3281
     44 O          18.4167  -29.8000    0.0000 O.3     2  UNL2       -0.5028
     45 O          14.6250   -6.3500    0.0000 O.3     2  UNL2       -0.3281
     46 O          13.8125  -24.3500    0.0000 O.3     2  UNL2       -0.5028
     47 O          21.1250  -33.8000    0.0000 O.3     2  UNL2       -0.5032
     48 O          17.5000  -20.3500    0.0000 O.3     2  UNL2       -0.4476
     49 O          13.6500  -18.3500    0.0000 O.3     2  UNL2       -0.4440
     50 O           2.4375  -12.1500    0.0000 O.3     1  UNL1       -0.4475
     51 O          18.4167  -31.8000    0.0000 O.3     2  UNL2       -0.5009
     52 O           6.5000  -10.0000    0.0000 O.3     1  UNL1       -0.4500
     53 O           3.9000   -8.1500    0.0000 O.3     1  UNL1       -0.4512
     54 O          15.4375  -12.1500    0.0000 O.3     2  UNL2       -0.4475
     55 O           4.0625  -49.8000    0.0000 O.3     1  UNL1       -0.5032
     56 O           0.8125  -50.3500    0.0000 O.3     1  UNL1       -0.5032
     57 O          19.5000  -10.0000    0.0000 O.3     2  UNL2       -0.4500
     58 O           0.9286  -10.3500    0.0000 O.3     1  UNL1       -0.4274
     59 O          16.9000   -8.1500    0.0000 O.3     2  UNL2       -0.4512
     60 O          13.9286  -10.3500    0.0000 O.3     2  UNL2       -0.4274
     61 O           3.5454  -52.1500    0.0000 O.3     1  UNL1       -0.5009
     62 O          17.0625  -49.8000    0.0000 O.3     2  UNL2       -0.5032
     63 O          13.8125  -50.3500    0.0000 O.3     2  UNL2       -0.5032
     64 O           6.5000    0.0000    0.0000 O.3     1  UNL1       -0.4584
     65 O          17.7273  -52.1500    0.0000 O.3     2  UNL2       -0.5009
     66 O          19.5000    0.0000    0.0000 O.3     2  UNL2       -0.4584
     67 O           4.0625  -15.8000    0.0000 O.2     1  UNL1       -0.2448
     68 O           5.9583  -22.1500    0.0000 O.3     1  UNL1       -0.5008
     69 O           1.5000  -20.1500    0.0000 O.3     1  UNL1       -0.5008
     70 O           0.8125  -14.3500    0.0000 O.2     1  UNL1       -0.2447
     71 O          17.0625  -15.8000    0.0000 O.2     2  UNL2       -0.2448
     72 O          13.8125  -14.3500    0.0000 O.2     2  UNL2       -0.2447
     73 O          18.9583  -22.1500    0.0000 O.3     2  UNL2       -0.5008
     74 O           8.9375  -14.1500    0.0000 O.2     1  UNL1       -0.2449
     75 O          14.5000  -20.1500    0.0000 O.3     2  UNL2       -0.5008
     76 O           4.0625  -11.8000    0.0000 O.2     1  UNL1       -0.2449
     77 O          21.9375  -14.1500    0.0000 O.2     2  UNL2       -0.2449
     78 O          17.0625  -11.8000    0.0000 O.2     2  UNL2       -0.2449
     79 O           8.9375  -24.1500    0.0000 O.3     1  UNL1       -0.5008
     80 O           3.7917  -22.0000    0.0000 O.3     1  UNL1       -0.5008
     81 O           8.1250  -22.0000    0.0000 O.3     1  UNL1       -0.5032
     82 O           3.5000  -20.0000    0.0000 O.3     1  UNL1       -0.5032
     83 O          21.9375  -24.1500    0.0000 O.3     2  UNL2       -0.5008
     84 O          16.7917  -22.0000    0.0000 O.3     2  UNL2       -0.5008
     85 O          21.1250  -22.0000    0.0000 O.3     2  UNL2       -0.5032
     86 O          16.5000  -20.0000    0.0000 O.3     2  UNL2       -0.5032
     87 O           6.5000   -4.1500    0.0000 O.2     1  UNL1       -0.2450
     88 O          19.5000   -4.1500    0.0000 O.2     2  UNL2       -0.2450
     89 O          12.5000  -20.3500    0.0000 O.3     1  UNL1       -0.5032
     90 O          10.5000  -19.8000    0.0000 O.3     1  UNL1       -0.5032
     91 O           9.7500  -18.0000    0.0000 O.3     1  UNL1       -0.5032
     92 O           7.1500  -18.1500    0.0000 O.3     1  UNL1       -0.5032
     93 O          25.5000  -20.3500    0.0000 O.3     2  UNL2       -0.5032
     94 O          23.5000  -19.8000    0.0000 O.3     2  UNL2       -0.5032
     95 O          22.7500  -18.0000    0.0000 O.3     2  UNL2       -0.5032
     96 O          20.1500  -18.1500    0.0000 O.3     2  UNL2       -0.5032
     97 O          11.3750  -21.8000    0.0000 O.3     1  UNL1       -0.5009
     98 O           8.5000  -20.3500    0.0000 O.3     1  UNL1       -0.5009
     99 O          24.3750  -21.8000    0.0000 O.3     2  UNL2       -0.5009
    100 O          21.5000  -20.3500    0.0000 O.3     2  UNL2       -0.5009
    101 O           8.3571  -10.3500    0.0000 O.3     1  UNL1       -0.5032
    102 O          12.0714   -9.8000    0.0000 O.3     1  UNL1       -0.5032
    103 O          21.3571  -10.3500    0.0000 O.3     2  UNL2       -0.5032
    104 O          25.0714   -9.8000    0.0000 O.3     2  UNL2       -0.5032
    105 O          10.5625  -11.8000    0.0000 O.3     1  UNL1       -0.5009
    106 O          23.5625  -11.8000    0.0000 O.3     2  UNL2       -0.5009
    107 C           5.4167  -43.8000    0.0000 C.3     1  UNL1        0.0915
    108 C           4.6429  -45.8000    0.0000 C.3     1  UNL1        0.2834
    109 C           9.7500  -44.3500    0.0000 C.ar    1  UNL1        0.0263
    110 C           6.8824  -48.3500    0.0000 C.3     1  UNL1        0.2977
    111 C           6.5000  -41.8000    0.0000 C.2     1  UNL1        0.0540
    112 C           4.8750  -36.1500    0.0000 C.3     1  UNL1        0.1730
    113 C          11.3750  -34.0000    0.0000 C.3     1  UNL1        0.1851
    114 C          10.2143  -46.1500    0.0000 C.ar    1  UNL1        0.1741
    115 C          11.3750  -36.0000    0.0000 C.3     1  UNL1        0.2053
    116 C           1.6250  -34.3500    0.0000 C.3     1  UNL1        0.1371
    117 C          18.4167  -43.8000    0.0000 C.3     2  UNL2        0.0811
    118 C          17.6429  -45.8000    0.0000 C.3     2  UNL2        0.2517
    119 C          11.7000  -42.3500    0.0000 C.ar    1  UNL1        0.0701
    120 C           8.3571  -46.3500    0.0000 C.2     1  UNL1        0.2218
    121 C           2.1667  -38.3500    0.0000 C.3     1  UNL1        0.2465
    122 C           7.5833  -44.0000    0.0000 C.2     1  UNL1       -0.0028
    123 C          19.1176  -48.3500    0.0000 C.3     2  UNL2        0.3297
    124 C           6.5000  -40.1500    0.0000 C.2     1  UNL1        0.3365
    125 C          17.8750  -36.1500    0.0000 C.3     2  UNL2        0.1730
    126 C          22.7500  -44.3500    0.0000 C.ar    2  UNL2        0.0252
    127 C          24.3750  -34.0000    0.0000 C.3     2  UNL2        0.1851
    128 C          19.5000  -41.8000    0.0000 C.2     2  UNL2        0.0530
    129 C          24.3750  -36.0000    0.0000 C.3     2  UNL2        0.2053
    130 C           9.9412  -47.8000    0.0000 C.ar    1  UNL1        0.2013
    131 C          14.6250  -34.3500    0.0000 C.3     2  UNL2        0.1371
    132 C          10.8333  -39.8000    0.0000 C.2     1  UNL1        0.3403
    133 C           1.0833  -32.3500    0.0000 C.3     1  UNL1        0.1226
    134 C          11.9167  -44.1500    0.0000 C.ar    1  UNL1       -0.0020
    135 C          23.2143  -46.1500    0.0000 C.ar    2  UNL2        0.1744
    136 C          15.1667  -38.3500    0.0000 C.3     2  UNL2        0.2465
    137 C          21.3571  -46.3500    0.0000 C.2     2  UNL2        0.2330
    138 C          12.0714  -45.8000    0.0000 C.ar    1  UNL1        0.1628
    139 C          24.7000  -42.3500    0.0000 C.ar    2  UNL2        0.0701
    140 C          20.5833  -44.0000    0.0000 C.2     2  UNL2       -0.0016
    141 C          19.5000  -40.1500    0.0000 C.2     2  UNL2        0.3365
    142 C          14.0833  -32.3500    0.0000 C.3     2  UNL2        0.1226
    143 C          23.8333  -39.8000    0.0000 C.2     2  UNL2        0.3403
    144 C          23.7059  -48.0000    0.0000 C.ar    2  UNL2        0.2013
    145 C          24.9167  -44.1500    0.0000 C.ar    2  UNL2       -0.0020
    146 C          25.0714  -45.8000    0.0000 C.ar    2  UNL2        0.1628
    147 C           9.7500  -30.3500    0.0000 C.2     1  UNL1        0.3405
    148 C           1.3000  -42.3500    0.0000 C.2     1  UNL1        0.3417
    149 C          10.8333  -27.8000    0.0000 C.ar    1  UNL1        0.0740
    150 C          22.7500  -30.3500    0.0000 C.2     2  UNL2        0.3405
    151 C           2.1667  -28.3500    0.0000 C.2     1  UNL1        0.3401
    152 C           8.1250  -25.8000    0.0000 C.ar    1  UNL1        0.0458
    153 C           4.8750  -26.1500    0.0000 C.ar    1  UNL1        0.0740
    154 C          14.3000  -42.3500    0.0000 C.2     2  UNL2        0.3417
    155 C           2.4375  -24.1500    0.0000 C.ar    1  UNL1        0.0458
    156 C          23.8333  -27.8000    0.0000 C.ar    2  UNL2        0.0740
    157 C           3.2500  -44.1500    0.0000 C.ar    1  UNL1        0.0662
    158 C          15.1667  -28.3500    0.0000 C.2     2  UNL2        0.3401
    159 C          11.9167  -30.1500    0.0000 C.ar    1  UNL1       -0.0017
    160 C          21.1250  -25.8000    0.0000 C.ar    2  UNL2        0.0458
    161 C          17.8750  -26.1500    0.0000 C.ar    2  UNL2        0.0740
    162 C           6.5000  -28.1500    0.0000 C.ar    1  UNL1        0.1708
    163 C          15.4375  -24.1500    0.0000 C.ar    2  UNL2        0.0458
    164 C          16.2500  -44.1500    0.0000 C.ar    2  UNL2        0.0662
    165 C           4.0625  -23.8000    0.0000 C.ar    1  UNL1       -0.0008
    166 C           0.5417  -22.3500    0.0000 C.ar    1  UNL1        0.1716
    167 C           7.5833  -32.0000    0.0000 C.ar    1  UNL1        0.1628
    168 C          24.9167  -30.1500    0.0000 C.ar    2  UNL2       -0.0017
    169 C           7.5833  -30.0000    0.0000 C.ar    1  UNL1        0.2012
    170 C           0.9286  -46.3500    0.0000 C.ar    1  UNL1       -0.0023
    171 C           2.7857  -46.1500    0.0000 C.ar    1  UNL1       -0.0023
    172 C          19.5000  -28.1500    0.0000 C.ar    2  UNL2        0.1708
    173 C           1.6250  -22.1500    0.0000 C.ar    1  UNL1        0.1751
    174 C           0.5000  -20.3500    0.0000 C.ar    1  UNL1        0.2124
    175 C          17.0625  -23.8000    0.0000 C.ar    2  UNL2       -0.0008
    176 C          13.5417  -22.3500    0.0000 C.ar    2  UNL2        0.1716
    177 C          20.5833  -32.0000    0.0000 C.ar    2  UNL2        0.1628
    178 C          20.5833  -30.0000    0.0000 C.ar    2  UNL2        0.2012
    179 C          13.9286  -46.3500    0.0000 C.ar    2  UNL2       -0.0023
    180 C          15.7857  -46.1500    0.0000 C.ar    2  UNL2       -0.0023
    181 C           2.2941  -48.1500    0.0000 C.ar    1  UNL1        0.1628
    182 C           0.7647  -48.3500    0.0000 C.ar    1  UNL1        0.1628
    183 C          14.6250  -22.1500    0.0000 C.ar    2  UNL2        0.1751
    184 C          13.5000  -20.3500    0.0000 C.ar    2  UNL2        0.2124
    185 C           6.5000   -7.8000    0.0000 C.3     1  UNL1        0.1851
    186 C           4.8750   -6.1500    0.0000 C.3     1  UNL1        0.1730
    187 C           2.7857  -10.1500    0.0000 C.3     1  UNL1        0.2053
    188 C          19.5000   -7.8000    0.0000 C.3     2  UNL2        0.1851
    189 C          17.8750   -6.1500    0.0000 C.3     2  UNL2        0.1730
    190 C           2.1667   -4.3500    0.0000 C.3     1  UNL1        0.1371
    191 C          15.7857  -10.1500    0.0000 C.3     2  UNL2        0.2053
    192 C           2.4375  -50.1500    0.0000 C.ar    1  UNL1        0.2006
    193 C          15.1667   -4.3500    0.0000 C.3     2  UNL2        0.1371
    194 C           1.3000   -8.3500    0.0000 C.3     1  UNL1        0.2465
    195 C          14.3000   -8.3500    0.0000 C.3     2  UNL2        0.2465
    196 C          14.5294  -48.1500    0.0000 C.ar    2  UNL2        0.1628
    197 C          13.0000  -48.3500    0.0000 C.ar    2  UNL2        0.1628
    198 C          15.4375  -50.1500    0.0000 C.ar    2  UNL2        0.2006
    199 C           3.2500   -2.3500    0.0000 C.3     1  UNL1        0.1226
    200 C          16.2500   -2.3500    0.0000 C.3     2  UNL2        0.1226
    201 C           4.5500  -18.0000    0.0000 C.ar    1  UNL1        0.1876
    202 C           0.8125  -16.3500    0.0000 C.ar    1  UNL1        0.1878
    203 C           5.6875  -16.0000    0.0000 C.ar    1  UNL1        0.1085
    204 C          17.5500  -18.0000    0.0000 C.ar    2  UNL2        0.1876
    205 C           2.4375  -14.1500    0.0000 C.ar    1  UNL1        0.1085
    206 C          13.8125  -16.3500    0.0000 C.ar    2  UNL2        0.1878
    207 C           4.0625  -13.8000    0.0000 C.2     1  UNL1        0.3436
    208 C           0.8125  -12.3500    0.0000 C.2     1  UNL1        0.3453
    209 C          18.6875  -16.0000    0.0000 C.ar    2  UNL2        0.1085
    210 C          17.0625  -13.8000    0.0000 C.2     2  UNL2        0.3436
    211 C          15.4375  -14.1500    0.0000 C.ar    2  UNL2        0.1085
    212 C           5.5000  -20.1500    0.0000 C.ar    1  UNL1        0.2060
    213 C           1.9500  -18.1500    0.0000 C.ar    1  UNL1        0.2060
    214 C          13.8125  -12.3500    0.0000 C.2     2  UNL2        0.3453
    215 C           7.3125  -12.3500    0.0000 C.2     1  UNL1        0.3399
    216 C           4.6429   -9.8000    0.0000 C.2     1  UNL1        0.3399
    217 C           5.8500  -18.3500    0.0000 C.ar    1  UNL1        0.0013
    218 C          20.3125  -12.3500    0.0000 C.2     2  UNL2        0.3399
    219 C          17.6429   -9.8000    0.0000 C.2     2  UNL2        0.3399
    220 C           2.4375  -16.1500    0.0000 C.ar    1  UNL1        0.0013
    221 C          18.5000  -20.1500    0.0000 C.ar    2  UNL2        0.2060
    222 C          14.9500  -18.1500    0.0000 C.ar    2  UNL2        0.2060
    223 C           7.0417  -21.8000    0.0000 C.ar    1  UNL1        0.2044
    224 C           2.5000  -19.8000    0.0000 C.ar    1  UNL1        0.2044
    225 C          18.8500  -18.3500    0.0000 C.ar    2  UNL2        0.0013
    226 C           6.5000  -19.8000    0.0000 C.ar    1  UNL1        0.1630
    227 C          15.4375  -16.1500    0.0000 C.ar    2  UNL2        0.0013
    228 C           3.2500  -17.8000    0.0000 C.ar    1  UNL1        0.1630
    229 C          20.0417  -21.8000    0.0000 C.ar    2  UNL2        0.2044
    230 C          10.5625  -13.8000    0.0000 C.ar    1  UNL1        0.0661
    231 C           5.6875  -12.0000    0.0000 C.ar    1  UNL1        0.0661
    232 C          15.5000  -19.8000    0.0000 C.ar    2  UNL2        0.2044
    233 C          19.5000  -19.8000    0.0000 C.ar    2  UNL2        0.1630
    234 C          23.5625  -13.8000    0.0000 C.ar    2  UNL2        0.0661
    235 C          18.6875  -12.0000    0.0000 C.ar    2  UNL2        0.0661
    236 C           9.7500   -2.1500    0.0000 C.2     1  UNL1        0.3395
    237 C          16.2500  -17.8000    0.0000 C.ar    2  UNL2        0.1630
    238 C          22.7500   -2.1500    0.0000 C.2     2  UNL2        0.3395
    239 C          10.5625  -15.8000    0.0000 C.ar    1  UNL1       -0.0023
    240 C          12.1875  -16.0000    0.0000 C.ar    1  UNL1       -0.0023
    241 C          10.8333   -3.8000    0.0000 C.ar    1  UNL1        0.0661
    242 C           5.6875  -14.0000    0.0000 C.ar    1  UNL1       -0.0023
    243 C           7.3125  -14.3500    0.0000 C.ar    1  UNL1       -0.0023
    244 C          23.8333   -3.8000    0.0000 C.ar    2  UNL2        0.0661
    245 C          23.5625  -15.8000    0.0000 C.ar    2  UNL2       -0.0023
    246 C          25.1875  -16.0000    0.0000 C.ar    2  UNL2       -0.0023
    247 C          18.6875  -14.0000    0.0000 C.ar    2  UNL2       -0.0023
    248 C          20.3125  -14.3500    0.0000 C.ar    2  UNL2       -0.0023
    249 C          12.3500  -18.1500    0.0000 C.ar    1  UNL1        0.1628
    250 C          11.0500  -18.3500    0.0000 C.ar    1  UNL1        0.1628
    251 C           8.9375  -16.1500    0.0000 C.ar    1  UNL1        0.1628
    252 C           7.3125  -16.3500    0.0000 C.ar    1  UNL1        0.1628
    253 C          25.3500  -18.1500    0.0000 C.ar    2  UNL2        0.1628
    254 C          24.0500  -18.3500    0.0000 C.ar    2  UNL2        0.1628
    255 C          21.9375  -16.1500    0.0000 C.ar    2  UNL2        0.1628
    256 C          20.3125  -16.3500    0.0000 C.ar    2  UNL2        0.1628
    257 C          11.3750   -6.0000    0.0000 C.ar    1  UNL1       -0.0023
    258 C           8.1250   -5.8000    0.0000 C.ar    1  UNL1       -0.0023
    259 C          11.5000  -20.0000    0.0000 C.ar    1  UNL1        0.2006
    260 C           8.4500  -17.8000    0.0000 C.ar    1  UNL1        0.2006
    261 C          24.3750   -6.0000    0.0000 C.ar    2  UNL2       -0.0023
    262 C          21.1250   -5.8000    0.0000 C.ar    2  UNL2       -0.0023
    263 C          24.5000  -20.0000    0.0000 C.ar    2  UNL2        0.2006
    264 C          21.4500  -17.8000    0.0000 C.ar    2  UNL2        0.2006
    265 C           9.1000   -8.0000    0.0000 C.ar    1  UNL1        0.1628
    266 C          11.7000   -8.3500    0.0000 C.ar    1  UNL1        0.1628
    267 C          22.1000   -8.0000    0.0000 C.ar    2  UNL2        0.1628
    268 C          24.7000   -8.3500    0.0000 C.ar    2  UNL2        0.1628
    269 C          10.2143  -10.1500    0.0000 C.ar    1  UNL1        0.2006
    270 C          23.2143  -10.1500    0.0000 C.ar    2  UNL2        0.2006
    271 H           6.5000  -46.0000    0.0000 H       1  UNL1        0.0467
    272 H           3.8766  -37.3422    0.0000 H       1  UNL1        0.0801
    273 H          12.8139  -33.4104    0.0000 H       1  UNL1        0.0813
    274 H          12.9135  -36.2265    0.0000 H       1  UNL1        0.0837
    275 H           0.0835  -34.5550    0.0000 H       1  UNL1        0.0670
    276 H          19.5000  -46.0000    0.0000 H       2  UNL2        0.0456
    277 H           0.6252  -38.5550    0.0000 H       1  UNL1        0.1098
    278 H           9.0229  -43.4119    0.0000 H       1  UNL1        0.0659
    279 H          16.8766  -37.3422    0.0000 H       2  UNL2        0.0801
    280 H          25.8139  -33.4104    0.0000 H       2  UNL2        0.0813
    281 H          25.9135  -36.2265    0.0000 H       2  UNL2        0.0837
    282 H           5.6875  -50.0000    0.0000 H       1  UNL1        0.2140
    283 H          13.0835  -34.5550    0.0000 H       2  UNL2        0.0670
    284 H          -0.3266  -31.6941    0.0000 H       1  UNL1        0.0725
    285 H           2.6248  -32.1450    0.0000 H       1  UNL1        0.0725
    286 H          13.4629  -43.9845    0.0000 H       1  UNL1        0.0663
    287 H          13.6252  -38.5550    0.0000 H       2  UNL2        0.1098
    288 H           8.2727  -52.0000    0.0000 H       1  UNL1        0.2134
    289 H          10.6364  -52.3500    0.0000 H       1  UNL1        0.2134
    290 H          22.0229  -43.4119    0.0000 H       2  UNL2        0.0660
    291 H          12.6734  -31.6941    0.0000 H       2  UNL2        0.0725
    292 H          15.6248  -32.1450    0.0000 H       2  UNL2        0.0725
    293 H          18.6875  -50.0000    0.0000 H       2  UNL2        0.2130
    294 H          20.3125  -50.3500    0.0000 H       2  UNL2        0.2130
    295 H          22.4545  -52.0000    0.0000 H       2  UNL2        0.2144
    296 H          26.4629  -43.9845    0.0000 H       2  UNL2        0.0663
    297 H          13.0000  -52.1500    0.0000 H       1  UNL1        0.2924
    298 H          12.1875  -50.0000    0.0000 H       1  UNL1        0.2923
    299 H          24.8182  -52.3500    0.0000 H       2  UNL2        0.2924
    300 H          25.1875  -50.0000    0.0000 H       2  UNL2        0.2923
    301 H          13.3678  -30.7089    0.0000 H       1  UNL1        0.0664
    302 H           5.2964  -22.8536    0.0000 H       1  UNL1        0.0664
    303 H          26.3678  -30.7089    0.0000 H       2  UNL2        0.0664
    304 H          -0.4737  -45.6778    0.0000 H       1  UNL1        0.0663
    305 H           4.2982  -46.5114    0.0000 H       1  UNL1        0.0663
    306 H          18.2964  -22.8536    0.0000 H       2  UNL2        0.0664
    307 H          12.6661  -45.4421    0.0000 H       2  UNL2        0.0663
    308 H          17.2213  -46.7477    0.0000 H       2  UNL2        0.0663
    309 H           7.9389   -7.2104    0.0000 H       1  UNL1        0.0813
    310 H           3.3744   -6.5577    0.0000 H       1  UNL1        0.0801
    311 H           4.0783  -11.0146    0.0000 H       1  UNL1        0.0837
    312 H          20.9389   -7.2104    0.0000 H       2  UNL2        0.0813
    313 H          16.3744   -6.5577    0.0000 H       2  UNL2        0.0801
    314 H           0.7228   -3.7726    0.0000 H       1  UNL1        0.0670
    315 H          17.0783  -11.0146    0.0000 H       2  UNL2        0.0837
    316 H           3.2500  -32.1500    0.0000 H       1  UNL1        0.2923
    317 H          13.7228   -3.7726    0.0000 H       2  UNL2        0.0670
    318 H          -0.2320   -8.0833    0.0000 H       1  UNL1        0.1098
    319 H           1.6250  -26.3500    0.0000 H       1  UNL1        0.2923
    320 H          12.7680   -8.0833    0.0000 H       2  UNL2        0.1098
    321 H           8.1250  -35.8000    0.0000 H       1  UNL1        0.2923
    322 H           4.8750  -34.1500    0.0000 H       1  UNL1        0.2924
    323 H          16.2500  -32.1500    0.0000 H       2  UNL2        0.2923
    324 H           2.8624   -0.8440    0.0000 H       1  UNL1        0.0725
    325 H           4.4185   -3.3761    0.0000 H       1  UNL1        0.0725
    326 H          14.6250  -26.3500    0.0000 H       2  UNL2        0.2923
    327 H          15.8624   -0.8440    0.0000 H       2  UNL2        0.0725
    328 H          17.4185   -3.3761    0.0000 H       2  UNL2        0.0725
    329 H          21.1250  -35.8000    0.0000 H       2  UNL2        0.2923
    330 H          17.8750  -34.1500    0.0000 H       2  UNL2        0.2924
    331 H           5.9091  -51.8000    0.0000 H       1  UNL1        0.2923
    332 H           1.1818  -52.3500    0.0000 H       1  UNL1        0.2923
    333 H           6.5000  -54.3500    0.0000 H       1  UNL1        0.2924
    334 H          20.0909  -51.8000    0.0000 H       2  UNL2        0.2923
    335 H          15.3636  -52.3500    0.0000 H       2  UNL2        0.2923
    336 H          19.5000  -54.3500    0.0000 H       2  UNL2        0.2924
    337 H           7.3585  -17.9725    0.0000 H       1  UNL1        0.0665
    338 H           0.9230  -16.5027    0.0000 H       1  UNL1        0.0665
    339 H          20.3585  -17.9725    0.0000 H       2  UNL2        0.0665
    340 H          13.9230  -16.5027    0.0000 H       2  UNL2        0.0665
    341 H           7.3125  -24.3500    0.0000 H       1  UNL1        0.2924
    342 H           2.7083  -21.8000    0.0000 H       1  UNL1        0.2924
    343 H          20.3125  -24.3500    0.0000 H       2  UNL2        0.2924
    344 H           9.0144  -15.9467    0.0000 H       1  UNL1        0.0663
    345 H          13.6451  -15.4583    0.0000 H       1  UNL1        0.0663
    346 H          15.7083  -21.8000    0.0000 H       2  UNL2        0.2924
    347 H           4.2031  -14.4633    0.0000 H       1  UNL1        0.0663
    348 H           6.0933  -15.3153    0.0000 H       1  UNL1        0.0663
    349 H          22.0144  -15.9467    0.0000 H       2  UNL2        0.0663
    350 H          26.6451  -15.4583    0.0000 H       2  UNL2        0.0663
    351 H          17.2031  -14.4633    0.0000 H       2  UNL2        0.0663
    352 H          19.0933  -15.3153    0.0000 H       2  UNL2        0.0663
    353 H          11.3750  -26.0000    0.0000 H       1  UNL1        0.2924
    354 H           5.6875  -24.0000    0.0000 H       1  UNL1        0.2924
    355 H          10.5625  -23.8000    0.0000 H       1  UNL1        0.2923
    356 H           4.8750  -22.3500    0.0000 H       1  UNL1        0.2923
    357 H          24.3750  -26.0000    0.0000 H       2  UNL2        0.2924
    358 H          18.6875  -24.0000    0.0000 H       2  UNL2        0.2924
    359 H          23.5625  -23.8000    0.0000 H       2  UNL2        0.2923
    360 H          17.8750  -22.3500    0.0000 H       2  UNL2        0.2923
    361 H          12.9022   -5.7072    0.0000 H       1  UNL1        0.0663
    362 H           6.6217   -5.4021    0.0000 H       1  UNL1        0.0663
    363 H          25.9022   -5.7072    0.0000 H       2  UNL2        0.0663
    364 H          19.6217   -5.4021    0.0000 H       2  UNL2        0.0663
    365 H          12.4583  -22.0000    0.0000 H       1  UNL1        0.2923
    366 H          10.2917  -22.1500    0.0000 H       1  UNL1        0.2923
    367 H           9.5000  -20.1500    0.0000 H       1  UNL1        0.2923
    368 H           7.5000  -20.0000    0.0000 H       1  UNL1        0.2923
    369 H          25.4583  -22.0000    0.0000 H       2  UNL2        0.2923
    370 H          23.2917  -22.1500    0.0000 H       2  UNL2        0.2923
    371 H          22.5000  -20.1500    0.0000 H       2  UNL2        0.2923
    372 H          20.5000  -20.0000    0.0000 H       2  UNL2        0.2923
    373 H          12.1875  -24.0000    0.0000 H       1  UNL1        0.2924
    374 H           9.2083  -22.3500    0.0000 H       1  UNL1        0.2924
    375 H          25.1875  -24.0000    0.0000 H       2  UNL2        0.2924
    376 H          22.2083  -22.3500    0.0000 H       2  UNL2        0.2924
    377 H           8.9375  -12.1500    0.0000 H       1  UNL1        0.2923
    378 H          12.1875  -12.0000    0.0000 H       1  UNL1        0.2923
    379 H          21.9375  -12.1500    0.0000 H       2  UNL2        0.2923
    380 H          25.1875  -12.0000    0.0000 H       2  UNL2        0.2923
    381 H          12.1875  -14.0000    0.0000 H       1  UNL1        0.2924
    382 H          25.1875  -14.0000    0.0000 H       2  UNL2        0.2924
@<TRIPOS>BOND
     1     1   108    1
     2     1   114    1
     3     2   108    1
     4     2   282    1
     5     3   112    1
     6     3   124    1
     7     4   116    1
     8     4   121    1
     9     5   115    1
    10     5   132    1
    11     6   110    1
    12     6   288    1
    13     7   110    1
    14     7   289    1
    15     8   123    1
    16     8   135    1
    17     9   113    1
    18     9   147    1
    19    10   131    1
    20    10   136    1
    21    11   125    1
    22    11   141    1
    23    12   121    1
    24    12   148    1
    25    13   129    1
    26    13   143    1
    27    14   118    1
    28    14   293    1
    29    15   118    1
    30    15   294    1
    31    16   123    1
    32    16   295    1
    33    17   127    1
    34    17   150    1
    35    18   120    2
    36    19   133    1
    37    19   151    1
    38    20   124    2
    39    21   130    1
    40    21   297    1
    41    22   136    1
    42    22   154    1
    43    23   132    2
    44    24   138    1
    45    24   298    1
    46    25   137    2
    47    26   142    1
    48    26   158    1
    49    27   141    2
    50    28   144    1
    51    28   299    1
    52    29   143    2
    53    30   146    1
    54    30   300    1
    55    31   147    2
    56    32   148    2
    57    33   150    2
    58    34   151    2
    59    35   154    2
    60    36   158    2
    61    37   162    1
    62    37   316    1
    63    38   166    1
    64    38   319    1
    65    39   167    1
    66    39   321    1
    67    40   173    1
    68    40   201    1
    69    41   174    1
    70    41   202    1
    71    42   169    1
    72    42   322    1
    73    43   190    1
    74    43   194    1
    75    44   172    1
    76    44   323    1
    77    45   193    1
    78    45   195    1
    79    46   176    1
    80    46   326    1
    81    47   177    1
    82    47   329    1
    83    48   183    1
    84    48   204    1
    85    49   184    1
    86    49   206    1
    87    50   187    1
    88    50   207    1
    89    51   178    1
    90    51   330    1
    91    52   185    1
    92    52   215    1
    93    53   186    1
    94    53   216    1
    95    54   191    1
    96    54   210    1
    97    55   181    1
    98    55   331    1
    99    56   182    1
   100    56   332    1
   101    57   188    1
   102    57   218    1
   103    58   194    1
   104    58   208    1
   105    59   189    1
   106    59   219    1
   107    60   195    1
   108    60   214    1
   109    61   192    1
   110    61   333    1
   111    62   196    1
   112    62   334    1
   113    63   197    1
   114    63   335    1
   115    64   199    1
   116    64   236    1
   117    65   198    1
   118    65   336    1
   119    66   200    1
   120    66   238    1
   121    67   207    2
   122    68   212    1
   123    68   341    1
   124    69   213    1
   125    69   342    1
   126    70   208    2
   127    71   210    2
   128    72   214    2
   129    73   221    1
   130    73   343    1
   131    74   215    2
   132    75   222    1
   133    75   346    1
   134    76   216    2
   135    77   218    2
   136    78   219    2
   137    79   223    1
   138    79   353    1
   139    80   224    1
   140    80   354    1
   141    81   226    1
   142    81   355    1
   143    82   228    1
   144    82   356    1
   145    83   229    1
   146    83   357    1
   147    84   232    1
   148    84   358    1
   149    85   233    1
   150    85   359    1
   151    86   237    1
   152    86   360    1
   153    87   236    2
   154    88   238    2
   155    89   249    1
   156    89   365    1
   157    90   250    1
   158    90   366    1
   159    91   251    1
   160    91   367    1
   161    92   252    1
   162    92   368    1
   163    93   253    1
   164    93   369    1
   165    94   254    1
   166    94   370    1
   167    95   255    1
   168    95   371    1
   169    96   256    1
   170    96   372    1
   171    97   259    1
   172    97   373    1
   173    98   260    1
   174    98   374    1
   175    99   263    1
   176    99   375    1
   177   100   264    1
   178   100   376    1
   179   101   265    1
   180   101   377    1
   181   102   266    1
   182   102   378    1
   183   103   267    1
   184   103   379    1
   185   104   268    1
   186   104   380    1
   187   105   269    1
   188   105   381    1
   189   106   270    1
   190   106   382    1
   191   107   108    1
   192   107   109    1
   193   107   111    1
   194   107   271    1
   195   108   110    1
   196   109   114   ar
   197   109   119   ar
   198   110   120    1
   199   111   122    2
   200   111   124    1
   201   112   113    1
   202   112   116    1
   203   112   272    1
   204   113   115    1
   205   113   273    1
   206   114   130   ar
   207   115   121    1
   208   115   274    1
   209   116   133    1
   210   116   275    1
   211   117   118    1
   212   117   126    1
   213   117   128    1
   214   117   276    1
   215   118   123    1
   216   119   132    1
   217   119   134   ar
   218   120   122    1
   219   121   277    1
   220   122   278    1
   221   123   137    1
   222   125   127    1
   223   125   131    1
   224   125   279    1
   225   126   135   ar
   226   126   139   ar
   227   127   129    1
   228   127   280    1
   229   128   140    2
   230   128   141    1
   231   129   136    1
   232   129   281    1
   233   130   138   ar
   234   131   142    1
   235   131   283    1
   236   133   284    1
   237   133   285    1
   238   134   138   ar
   239   134   286    1
   240   135   144   ar
   241   136   287    1
   242   137   140    1
   243   139   143    1
   244   139   145   ar
   245   140   290    1
   246   142   291    1
   247   142   292    1
   248   144   146   ar
   249   145   146   ar
   250   145   296    1
   251   147   149    1
   252   148   157    1
   253   149   152   ar
   254   149   159   ar
   255   150   156    1
   256   151   153    1
   257   152   155    1
   258   152   162   ar
   259   153   155   ar
   260   153   165   ar
   261   154   164    1
   262   155   166   ar
   263   156   160   ar
   264   156   168   ar
   265   157   170   ar
   266   157   171   ar
   267   158   161    1
   268   159   167   ar
   269   159   301    1
   270   160   163    1
   271   160   172   ar
   272   161   163   ar
   273   161   175   ar
   274   162   169   ar
   275   163   176   ar
   276   164   179   ar
   277   164   180   ar
   278   165   173   ar
   279   165   302    1
   280   166   174   ar
   281   167   169   ar
   282   168   177   ar
   283   168   303    1
   284   170   182   ar
   285   170   304    1
   286   171   181   ar
   287   171   305    1
   288   172   178   ar
   289   173   174   ar
   290   175   183   ar
   291   175   306    1
   292   176   184   ar
   293   177   178   ar
   294   179   197   ar
   295   179   307    1
   296   180   196   ar
   297   180   308    1
   298   181   192   ar
   299   182   192   ar
   300   183   184   ar
   301   185   186    1
   302   185   187    1
   303   185   309    1
   304   186   190    1
   305   186   310    1
   306   187   194    1
   307   187   311    1
   308   188   189    1
   309   188   191    1
   310   188   312    1
   311   189   193    1
   312   189   313    1
   313   190   199    1
   314   190   314    1
   315   191   195    1
   316   191   315    1
   317   193   200    1
   318   193   317    1
   319   194   318    1
   320   195   320    1
   321   196   198   ar
   322   197   198   ar
   323   199   324    1
   324   199   325    1
   325   200   327    1
   326   200   328    1
   327   201   203   ar
   328   201   212   ar
   329   202   205   ar
   330   202   213   ar
   331   203   207    1
   332   203   217   ar
   333   204   209   ar
   334   204   221   ar
   335   205   208    1
   336   205   220   ar
   337   206   211   ar
   338   206   222   ar
   339   209   210    1
   340   209   225   ar
   341   211   214    1
   342   211   227   ar
   343   212   223   ar
   344   213   224   ar
   345   215   230    1
   346   216   231    1
   347   217   226   ar
   348   217   337    1
   349   218   234    1
   350   219   235    1
   351   220   228   ar
   352   220   338    1
   353   221   229   ar
   354   222   232   ar
   355   223   226   ar
   356   224   228   ar
   357   225   233   ar
   358   225   339    1
   359   227   237   ar
   360   227   340    1
   361   229   233   ar
   362   230   239   ar
   363   230   240   ar
   364   231   242   ar
   365   231   243   ar
   366   232   237   ar
   367   234   245   ar
   368   234   246   ar
   369   235   247   ar
   370   235   248   ar
   371   236   241    1
   372   238   244    1
   373   239   250   ar
   374   239   344    1
   375   240   249   ar
   376   240   345    1
   377   241   257   ar
   378   241   258   ar
   379   242   252   ar
   380   242   347    1
   381   243   251   ar
   382   243   348    1
   383   244   261   ar
   384   244   262   ar
   385   245   254   ar
   386   245   349    1
   387   246   253   ar
   388   246   350    1
   389   247   256   ar
   390   247   351    1
   391   248   255   ar
   392   248   352    1
   393   249   259   ar
   394   250   259   ar
   395   251   260   ar
   396   252   260   ar
   397   253   263   ar
   398   254   263   ar
   399   255   264   ar
   400   256   264   ar
   401   257   266   ar
   402   257   361    1
   403   258   265   ar
   404   258   362    1
   405   261   268   ar
   406   261   363    1
   407   262   267   ar
   408   262   364    1
   409   265   269   ar
   410   266   269   ar
   411   267   270   ar
   412   268   270   ar
