@<TRIPOS>MOLECULE
16145850
 130 143 0 0 0
SMALL
GASTEIGER

@<TRIPOS>ATOM
      1 O           9.3200    2.9985    0.0000 O.3     1  UNL1       -0.4441
      2 O           7.0490    0.0735    0.0000 O.3     1  UNL1       -0.4441
      3 O          10.7300   -0.1478    0.0000 O.3     1  UNL1       -0.4808
      4 O           5.3425    1.2981    0.0000 O.3     1  UNL1       -0.4444
      5 O          12.7849    3.1120    0.0000 O.3     1  UNL1       -0.4444
      6 O           5.2369    1.8432    0.0000 O.3     1  UNL1       -0.3827
      7 O          10.1166    5.1583    0.0000 O.3     1  UNL1       -0.3827
      8 O           9.6336   -2.7121    0.0000 O.3     1  UNL1       -0.3868
      9 O           8.6962   -3.1122    0.0000 O.3     1  UNL1       -0.4808
     10 O           7.2802    4.1728    0.0000 O.3     1  UNL1       -0.5062
     11 O          11.7288   -0.1024    0.0000 O.3     1  UNL1       -0.5062
     12 O           7.7701   -0.2634    0.0000 O.3     1  UNL1       -0.5062
     13 O           3.9062    4.3724    0.0000 O.3     1  UNL1       -0.5065
     14 O          15.2271    0.4379    0.0000 O.3     1  UNL1       -0.5065
     15 O           7.6121   -5.6016    0.0000 O.3     1  UNL1       -0.3875
     16 O           5.1981   -2.8472    0.0000 O.3     1  UNL1       -0.5063
     17 O          13.8027    5.7592    0.0000 O.3     1  UNL1       -0.5033
     18 O           2.7027    1.0255    0.0000 O.3     1  UNL1       -0.5033
     19 O          12.3885    7.1734    0.0000 O.3     1  UNL1       -0.5033
     20 O           2.5034   -0.9646    0.0000 O.3     1  UNL1       -0.5033
     21 O          12.2255   -4.3269    0.0000 O.3     1  UNL1       -0.5033
     22 O          14.0128   -3.4294    0.0000 O.3     1  UNL1       -0.5033
     23 O          10.1461   -7.2651    0.0000 O.3     1  UNL1       -0.5033
     24 O          11.9437   -6.3883    0.0000 O.3     1  UNL1       -0.5033
     25 C           7.2160    2.2225    0.0000 C.3     1  UNL1        0.0568
     26 C          11.0944    2.3438    0.0000 C.3     1  UNL1        0.0567
     27 C           8.1012    1.5952    0.0000 C.ar    1  UNL1        0.0473
     28 C           9.8734    1.4781    0.0000 C.ar    1  UNL1        0.0472
     29 C           6.2336    1.7620    0.0000 C.3     1  UNL1        0.1477
     30 C           9.0443    2.0373    0.0000 C.ar    1  UNL1        0.1404
     31 C           8.8841   -0.0258    0.0000 C.ar    1  UNL1        0.0471
     32 C          10.6166    4.2923    0.0000 C.3     1  UNL1        0.1477
     33 C           8.0205    0.5566    0.0000 C.ar    1  UNL1        0.1404
     34 C          11.3532    3.3097    0.0000 C.3     1  UNL1        0.3074
     35 C           6.1495    0.6802    0.0000 C.3     1  UNL1        0.3074
     36 C           8.8000   -1.1076    0.0000 C.3     1  UNL1        0.0529
     37 C           9.8167    0.4380    0.0000 C.ar    1  UNL1        0.1362
     38 C           9.6995   -1.7143    0.0000 C.3     1  UNL1        0.1074
     39 C           6.3529    2.7594    0.0000 C.ar    1  UNL1        0.0463
     40 C          12.3661    1.5491    0.0000 C.ar    1  UNL1        0.0463
     41 C          10.6710   -1.2312    0.0000 C.3     1  UNL1        0.1519
     42 C           7.8996   -1.5425    0.0000 C.ar    1  UNL1        0.0463
     43 C           5.4414    2.3097    0.0000 C.ar    1  UNL1        0.1365
     44 C          13.1432    2.1784    0.0000 C.ar    1  UNL1        0.1365
     45 C          11.6120    4.2756    0.0000 C.ar    1  UNL1        0.0424
     46 C           5.2380    0.2690    0.0000 C.ar    1  UNL1        0.0424
     47 C           6.3918    3.7138    0.0000 C.ar    1  UNL1        0.1276
     48 C          12.5131    0.5179    0.0000 C.ar    1  UNL1        0.1276
     49 C          11.5065   -1.7807    0.0000 C.ar    1  UNL1       -0.0012
     50 C           7.8260   -2.5398    0.0000 C.ar    1  UNL1        0.1355
     51 C           7.0727   -0.9801    0.0000 C.ar    1  UNL1        0.1277
     52 C           4.6604    2.8596    0.0000 C.ar    1  UNL1        0.0222
     53 C          14.1213    1.8202    0.0000 C.ar    1  UNL1        0.0222
     54 C           6.9255   -2.9747    0.0000 C.ar    1  UNL1        0.0387
     55 C          12.5780    4.5344    0.0000 C.ar    1  UNL1       -0.0059
     56 C           4.4261    0.8529    0.0000 C.ar    1  UNL1       -0.0059
     57 C          10.9049    4.9827    0.0000 C.ar    1  UNL1       -0.0475
     58 C           5.1384   -0.7261    0.0000 C.ar    1  UNL1       -0.0475
     59 C           5.5910    4.2345    0.0000 C.ar    1  UNL1        0.0218
     60 C          13.4827    0.1371    0.0000 C.ar    1  UNL1        0.0218
     61 C           6.8328   -4.0122    0.0000 C.3     1  UNL1        0.0092
     62 C           4.7344    3.8119    0.0000 C.ar    1  UNL1        0.1238
     63 C          14.2922    0.7927    0.0000 C.ar    1  UNL1        0.1238
     64 C           8.6275   -4.1516    0.0000 C.3     1  UNL1        0.1513
     65 C           7.6896   -4.6046    0.0000 C.3     1  UNL1        0.1004
     66 C           6.1722   -1.4150    0.0000 C.ar    1  UNL1        0.0221
     67 C          11.4483   -2.7790    0.0000 C.ar    1  UNL1       -0.0098
     68 C          12.4001   -1.3320    0.0000 C.ar    1  UNL1       -0.0513
     69 C           6.0986   -2.4123    0.0000 C.ar    1  UNL1        0.1271
     70 C          12.8368    5.5003    0.0000 C.ar    1  UNL1        0.1587
     71 C           3.5146    0.4416    0.0000 C.ar    1  UNL1        0.1587
     72 C          11.1637    5.9486    0.0000 C.ar    1  UNL1       -0.0160
     73 C           4.2268   -1.1373    0.0000 C.ar    1  UNL1       -0.0160
     74 C          12.1297    6.2074    0.0000 C.ar    1  UNL1        0.1582
     75 C           3.4149   -0.5534    0.0000 C.ar    1  UNL1        0.1582
     76 C          12.2837   -3.3286    0.0000 C.ar    1  UNL1        0.1586
     77 C           9.4566   -4.7108    0.0000 C.ar    1  UNL1       -0.0012
     78 C          13.2356   -1.8816    0.0000 C.ar    1  UNL1       -0.0162
     79 C          13.1774   -2.8799    0.0000 C.ar    1  UNL1        0.1582
     80 C           9.3868   -5.7083    0.0000 C.ar    1  UNL1       -0.0098
     81 C          10.3554   -4.2724    0.0000 C.ar    1  UNL1       -0.0513
     82 C          10.2159   -6.2675    0.0000 C.ar    1  UNL1        0.1586
     83 C          11.1844   -4.8316    0.0000 C.ar    1  UNL1       -0.0162
     84 C          11.1147   -5.8292    0.0000 C.ar    1  UNL1        0.1582
     85 H           7.2916    3.0691    0.0000 H       1  UNL1        0.0430
     86 H          10.8744    1.5227    0.0000 H       1  UNL1        0.0430
     87 H           6.1235    2.3721    0.0000 H       1  UNL1        0.0685
     88 H          11.1340    4.6338    0.0000 H       1  UNL1        0.0685
     89 H           8.7391   -1.9554    0.0000 H       1  UNL1        0.0429
     90 H          10.2155   -2.0580    0.0000 H       1  UNL1        0.0643
     91 H          11.2246   -0.9519    0.0000 H       1  UNL1        0.0811
     92 H           4.6765    1.5779    0.0000 H       1  UNL1        0.2102
     93 H           9.4966    5.1583    0.0000 H       1  UNL1        0.2102
     94 H           4.0994    2.5955    0.0000 H       1  UNL1        0.0691
     95 H          10.1490   -3.0568    0.0000 H       1  UNL1        0.2100
     96 H          14.5986    2.2159    0.0000 H       1  UNL1        0.0691
     97 H          13.0164    4.0960    0.0000 H       1  UNL1        0.0660
     98 H           4.4879    1.4698    0.0000 H       1  UNL1        0.0660
     99 H          10.3060    4.8222    0.0000 H       1  UNL1        0.0624
    100 H           5.6418   -1.0880    0.0000 H       1  UNL1        0.0624
    101 H           5.6276    4.8534    0.0000 H       1  UNL1        0.0691
    102 H          13.5773   -0.4756    0.0000 H       1  UNL1        0.0691
    103 H           6.2338   -3.8521    0.0000 H       1  UNL1        0.0342
    104 H           6.5727   -4.5749    0.0000 H       1  UNL1        0.0342
    105 H           8.5831   -4.7700    0.0000 H       1  UNL1        0.0811
    106 H           7.1297   -4.8710    0.0000 H       1  UNL1        0.0637
    107 H           5.6596   -1.0663    0.0000 H       1  UNL1        0.0691
    108 H          10.8942   -3.0572    0.0000 H       1  UNL1        0.0659
    109 H          12.4362   -0.7130    0.0000 H       1  UNL1        0.0623
    110 H          10.7253    6.3870    0.0000 H       1  UNL1        0.0655
    111 H           4.1651   -1.7542    0.0000 H       1  UNL1        0.0655
    112 H           7.3092    4.7921    0.0000 H       1  UNL1        0.2921
    113 H          11.8187   -0.7158    0.0000 H       1  UNL1        0.2921
    114 H           8.3711   -0.4157    0.0000 H       1  UNL1        0.2921
    115 H          13.7897   -1.6033    0.0000 H       1  UNL1        0.0655
    116 H           3.9504    4.9908    0.0000 H       1  UNL1        0.2921
    117 H          15.7075    0.8299    0.0000 H       1  UNL1        0.2921
    118 H           7.0528   -5.8691    0.0000 H       1  UNL1        0.2100
    119 H           5.1525   -3.4655    0.0000 H       1  UNL1        0.2921
    120 H          13.9632    6.3580    0.0000 H       1  UNL1        0.2923
    121 H           2.1375    0.7705    0.0000 H       1  UNL1        0.2923
    122 H           8.8296   -5.9801    0.0000 H       1  UNL1        0.0659
    123 H          10.3986   -3.6539    0.0000 H       1  UNL1        0.0623
    124 H          11.9501    7.6118    0.0000 H       1  UNL1        0.2923
    125 H           2.0000   -0.6027    0.0000 H       1  UNL1        0.2923
    126 H          12.7435   -4.6676    0.0000 H       1  UNL1        0.2923
    127 H          14.5669   -3.1512    0.0000 H       1  UNL1        0.2923
    128 H          11.7417   -4.5598    0.0000 H       1  UNL1        0.0655
    129 H          10.6601   -7.6118    0.0000 H       1  UNL1        0.2923
    130 H          11.9004   -7.0068    0.0000 H       1  UNL1        0.2923
@<TRIPOS>BOND
     1     1    30    1
     2     1    34    1
     3     2    33    1
     4     2    35    1
     5     3    37    1
     6     3    41    1
     7     4    35    1
     8     4    43    1
     9     5    34    1
    10     5    44    1
    11    29     6    1
    12     6    92    1
    13    32     7    1
    14     7    93    1
    15    38     8    1
    16     8    95    1
    17     9    50    1
    18     9    64    1
    19    10    47    1
    20    10   112    1
    21    11    48    1
    22    11   113    1
    23    12    51    1
    24    12   114    1
    25    13    62    1
    26    13   116    1
    27    14    63    1
    28    14   117    1
    29    65    15    1
    30    15   118    1
    31    16    69    1
    32    16   119    1
    33    17    70    1
    34    17   120    1
    35    18    71    1
    36    18   121    1
    37    19    74    1
    38    19   124    1
    39    20    75    1
    40    20   125    1
    41    21    76    1
    42    21   126    1
    43    22    79    1
    44    22   127    1
    45    23    82    1
    46    23   129    1
    47    24    84    1
    48    24   130    1
    49    25    27    1
    50    25    29    1
    51    25    39    1
    52    25    85    1
    53    26    28    1
    54    26    32    1
    55    26    40    1
    56    26    86    1
    57    27    30   ar
    58    27    33   ar
    59    28    30   ar
    60    28    37   ar
    61    29    35    1
    62    29    87    1
    63    31    33   ar
    64    31    36    1
    65    31    37   ar
    66    32    34    1
    67    32    88    1
    68    34    45    1
    69    35    46    1
    70    36    38    1
    71    36    42    1
    72    36    89    1
    73    38    41    1
    74    38    90    1
    75    39    43   ar
    76    39    47   ar
    77    40    44   ar
    78    40    48   ar
    79    41    49    1
    80    41    91    1
    81    42    50   ar
    82    42    51   ar
    83    43    52   ar
    84    44    53   ar
    85    45    55   ar
    86    45    57   ar
    87    46    56   ar
    88    46    58   ar
    89    47    59   ar
    90    48    60   ar
    91    49    67   ar
    92    49    68   ar
    93    50    54   ar
    94    51    66   ar
    95    52    62   ar
    96    52    94    1
    97    53    63   ar
    98    53    96    1
    99    54    61    1
   100    54    69   ar
   101    55    70   ar
   102    55    97    1
   103    56    71   ar
   104    56    98    1
   105    57    72   ar
   106    57    99    1
   107    58    73   ar
   108    58   100    1
   109    59    62   ar
   110    59   101    1
   111    60    63   ar
   112    60   102    1
   113    61    65    1
   114    61   103    1
   115    61   104    1
   116    64    65    1
   117    64    77    1
   118    64   105    1
   119    65   106    1
   120    66    69   ar
   121    66   107    1
   122    67    76   ar
   123    67   108    1
   124    68    78   ar
   125    68   109    1
   126    70    74   ar
   127    71    75   ar
   128    72    74   ar
   129    72   110    1
   130    73    75   ar
   131    73   111    1
   132    76    79   ar
   133    77    80   ar
   134    77    81   ar
   135    78    79   ar
   136    78   115    1
   137    80    82   ar
   138    80   122    1
   139    81    83   ar
   140    81   123    1
   141    82    84   ar
   142    83    84   ar
   143    83   128    1
