@<TRIPOS>MOLECULE
16197485
 190 204 0 0 0
SMALL
GASTEIGER

@<TRIPOS>ATOM
      1 O          19.0403   -4.2527    0.0000 O.3     1  UNL1       -0.3281
      2 O          18.5446   -4.2774    0.0000 O.3     1  UNL1       -0.4514
      3 O          21.0377   -1.9273    0.0000 O.3     1  UNL1       -0.4476
      4 O          22.7200   -6.2094    0.0000 O.3     1  UNL1       -0.4485
      5 O          19.0227   -1.3394    0.0000 O.3     1  UNL1       -0.4500
      6 O          21.1956   -3.1570    0.0000 O.3     1  UNL1       -0.4275
      7 O          21.8587   -7.3264    0.0000 O.3     1  UNL1       -0.3487
      8 O          15.7835   -3.1930    0.0000 O.3     1  UNL1       -0.4584
      9 O           8.5991    2.5126    0.0000 O.3     1  UNL1       -0.3281
     10 O          18.5230   -5.9396    0.0000 O.2     1  UNL1       -0.2453
     11 O          21.8233   -8.1590    0.0000 O.2     1  UNL1       -0.2815
     12 O           8.5991   -0.4874    0.0000 O.3     1  UNL1       -0.4500
     13 O           6.8671    0.5126    0.0000 O.3     1  UNL1       -0.4512
     14 O          22.6982   -2.0038    0.0000 O.2     1  UNL1       -0.2449
     15 O          10.3312    0.5126    0.0000 O.3     1  UNL1       -0.4475
     16 O          24.7191   -5.4292    0.0000 O.3     1  UNL1       -0.5009
     17 O          19.7017   -8.3226    0.0000 O.2     1  UNL1       -0.2839
     18 O          10.3312    2.5126    0.0000 O.3     1  UNL1       -0.4275
     19 O          25.0076   -3.3210    0.0000 O.3     1  UNL1       -0.5032
     20 O          19.2358    0.2329    0.0000 O.2     1  UNL1       -0.2449
     21 O           6.8671    3.5126    0.0000 O.3     1  UNL1       -0.4584
     22 O          21.3968   -1.2356    0.0000 O.2     1  UNL1       -0.2449
     23 O          14.5769   -3.0293    0.0000 O.2     1  UNL1       -0.2449
     24 O          12.7248   -0.4370    0.0000 O.3     1  UNL1       -0.4476
     25 O          15.1446    1.0979    0.0000 O.3     1  UNL1       -0.5028
     26 O          15.6471    1.3853    0.0000 O.3     1  UNL1       -0.5028
     27 O           9.4651   -0.9874    0.0000 O.2     1  UNL1       -0.2448
     28 O           6.8671   -0.4874    0.0000 O.2     1  UNL1       -0.2449
     29 O           6.0010    2.0126    0.0000 O.2     1  UNL1       -0.2449
     30 O          18.1963    2.6939    0.0000 O.3     1  UNL1       -0.5032
     31 O          16.1481    2.7018    0.0000 O.3     1  UNL1       -0.5009
     32 O          13.7558    1.3329    0.0000 O.3     1  UNL1       -0.5009
     33 O           9.4651    4.0126    0.0000 O.2     1  UNL1       -0.2449
     34 O           5.1350    3.5126    0.0000 O.2     1  UNL1       -0.2450
     35 O          24.8286   -1.0942    0.0000 O.3     1  UNL1       -0.5032
     36 O          22.2133    1.1774    0.0000 O.3     1  UNL1       -0.5032
     37 O          24.1767    0.7966    0.0000 O.3     1  UNL1       -0.5009
     38 O          13.5864   -1.6722    0.0000 O.3     1  UNL1       -0.5008
     39 O          10.9327   -3.8989    0.0000 O.3     1  UNL1       -0.5032
     40 O          12.9023   -3.5516    0.0000 O.3     1  UNL1       -0.5008
     41 O           6.0010   -3.9874    0.0000 O.3     1  UNL1       -0.5032
     42 O           9.4651   -3.9874    0.0000 O.3     1  UNL1       -0.5032
     43 O           4.2690   -1.9874    0.0000 O.3     1  UNL1       -0.5032
     44 O           2.5369    1.0126    0.0000 O.3     1  UNL1       -0.5032
     45 O           7.7331   -4.9874    0.0000 O.3     1  UNL1       -0.5009
     46 O           2.5369   -0.9874    0.0000 O.3     1  UNL1       -0.5009
     47 O          12.0632    6.5126    0.0000 O.3     1  UNL1       -0.5032
     48 O          13.7953    3.5126    0.0000 O.3     1  UNL1       -0.5032
     49 O          13.7953    5.5126    0.0000 O.3     1  UNL1       -0.5009
     50 O           7.7331    7.0126    0.0000 O.3     1  UNL1       -0.5032
     51 O           4.2690    7.0126    0.0000 O.3     1  UNL1       -0.5032
     52 O           6.0010    8.0126    0.0000 O.3     1  UNL1       -0.5009
     53 C          18.5155   -3.2035    0.0000 C.3     1  UNL1        0.1730
     54 C          19.0188   -2.3394    0.0000 C.3     1  UNL1        0.1851
     55 C          19.9673   -1.8349    0.0000 C.3     1  UNL1        0.2053
     56 C          17.6475   -3.7002    0.0000 C.3     1  UNL1        0.1371
     57 C          21.2017   -5.3819    0.0000 C.3     1  UNL1        0.0936
     58 C          20.2080   -3.3138    0.0000 C.3     1  UNL1        0.2465
     59 C          21.6608   -6.3461    0.0000 C.3     1  UNL1        0.2887
     60 C          21.9835   -4.6450    0.0000 C.ar    1  UNL1        0.0266
     61 C          20.1450   -5.5752    0.0000 C.2     1  UNL1        0.0545
     62 C          16.6475   -3.6963    0.0000 C.3     1  UNL1        0.1226
     63 C          22.9190   -5.1601    0.0000 C.ar    1  UNL1        0.1743
     64 C          22.2388   -3.6014    0.0000 C.ar    1  UNL1        0.0701
     65 C          19.1529   -5.1629    0.0000 C.2     1  UNL1        0.3366
     66 C          21.2386   -7.3477    0.0000 C.2     1  UNL1        0.2739
     67 C          21.8857   -2.5868    0.0000 C.2     1  UNL1        0.3403
     68 C          19.5843   -6.5063    0.0000 C.2     1  UNL1       -0.0004
     69 C          20.1550   -7.4312    0.0000 C.2     1  UNL1        0.2282
     70 C          23.9437   -4.7978    0.0000 C.ar    1  UNL1        0.2013
     71 C           8.5991    0.5126    0.0000 C.3     1  UNL1        0.1851
     72 C           7.7331    1.0126    0.0000 C.3     1  UNL1        0.1730
     73 C          23.2014   -3.0966    0.0000 C.ar    1  UNL1       -0.0020
     74 C           9.4651    1.0126    0.0000 C.3     1  UNL1        0.2053
     75 C           7.7331    2.0126    0.0000 C.3     1  UNL1        0.1371
     76 C          24.0910   -3.7209    0.0000 C.ar    1  UNL1        0.1628
     77 C           9.4651    2.0126    0.0000 C.3     1  UNL1        0.2465
     78 C          18.5260   -0.4715    0.0000 C.2     1  UNL1        0.3405
     79 C           6.8671    2.5126    0.0000 C.3     1  UNL1        0.1226
     80 C          21.5536   -2.2233    0.0000 C.2     1  UNL1        0.3417
     81 C          17.6619    0.0319    0.0000 C.ar    1  UNL1        0.0740
     82 C          15.2868   -2.3250    0.0000 C.2     1  UNL1        0.3401
     83 C          16.6619    0.0357    0.0000 C.ar    1  UNL1        0.0458
     84 C          15.2907   -1.3250    0.0000 C.ar    1  UNL1        0.0740
     85 C          15.7940   -0.4609    0.0000 C.ar    1  UNL1        0.0458
     86 C          22.2094   -1.4683    0.0000 C.ar    1  UNL1        0.0662
     87 C          18.2000    0.9237    0.0000 C.ar    1  UNL1       -0.0017
     88 C          16.1307    0.9317    0.0000 C.ar    1  UNL1        0.1708
     89 C          10.3312   -0.4874    0.0000 C.2     1  UNL1        0.3436
     90 C           7.7331   -0.9874    0.0000 C.2     1  UNL1        0.3399
     91 C           6.0010    1.0126    0.0000 C.2     1  UNL1        0.3399
     92 C          14.2491   -1.3371    0.0000 C.ar    1  UNL1       -0.0009
     93 C          15.2907    0.4510    0.0000 C.ar    1  UNL1        0.1708
     94 C          17.6897    1.8318    0.0000 C.ar    1  UNL1        0.1628
     95 C          16.6481    1.8358    0.0000 C.ar    1  UNL1        0.2012
     96 C          10.3312    3.5126    0.0000 C.2     1  UNL1        0.3417
     97 C          13.7248   -0.4370    0.0000 C.ar    1  UNL1        0.1743
     98 C          14.2491    0.4631    0.0000 C.ar    1  UNL1        0.2021
     99 C          21.8835   -0.5229    0.0000 C.ar    1  UNL1       -0.0023
    100 C          23.1911   -1.6587    0.0000 C.ar    1  UNL1       -0.0023
    101 C          10.9740   -1.2534    0.0000 C.ar    1  UNL1        0.1085
    102 C           7.7331   -1.9874    0.0000 C.ar    1  UNL1        0.0661
    103 C           5.1350    0.5126    0.0000 C.ar    1  UNL1        0.0661
    104 C           6.0010    4.0126    0.0000 C.2     1  UNL1        0.3395
    105 C          11.9588   -1.0798    0.0000 C.ar    1  UNL1        0.1876
    106 C          11.1972    4.0126    0.0000 C.ar    1  UNL1        0.0662
    107 C          23.8469   -0.9038    0.0000 C.ar    1  UNL1        0.1628
    108 C          22.5392    0.2321    0.0000 C.ar    1  UNL1        0.1628
    109 C          10.6319   -2.1931    0.0000 C.ar    1  UNL1        0.0013
    110 C          23.5209    0.0416    0.0000 C.ar    1  UNL1        0.2006
    111 C          12.6015   -1.8458    0.0000 C.ar    1  UNL1        0.2060
    112 C           6.0010    5.0126    0.0000 C.ar    1  UNL1        0.0661
    113 C           8.5991   -2.4874    0.0000 C.ar    1  UNL1       -0.0023
    114 C           6.8671   -2.4874    0.0000 C.ar    1  UNL1       -0.0023
    115 C           4.2690    1.0126    0.0000 C.ar    1  UNL1       -0.0023
    116 C           5.1350   -0.4874    0.0000 C.ar    1  UNL1       -0.0023
    117 C          11.2747   -2.9592    0.0000 C.ar    1  UNL1        0.1630
    118 C          12.0632    3.5126    0.0000 C.ar    1  UNL1       -0.0023
    119 C          11.1972    5.0126    0.0000 C.ar    1  UNL1       -0.0023
    120 C          12.2595   -2.7855    0.0000 C.ar    1  UNL1        0.2044
    121 C           6.8671   -3.4874    0.0000 C.ar    1  UNL1        0.1628
    122 C           8.5991   -3.4874    0.0000 C.ar    1  UNL1        0.1628
    123 C           4.2690   -0.9874    0.0000 C.ar    1  UNL1        0.1628
    124 C           3.4030    0.5126    0.0000 C.ar    1  UNL1        0.1628
    125 C           5.1350    5.5126    0.0000 C.ar    1  UNL1       -0.0023
    126 C           6.8671    5.5126    0.0000 C.ar    1  UNL1       -0.0023
    127 C           7.7331   -3.9874    0.0000 C.ar    1  UNL1        0.2006
    128 C           3.4030   -0.4874    0.0000 C.ar    1  UNL1        0.2006
    129 C          12.0632    5.5126    0.0000 C.ar    1  UNL1        0.1628
    130 C          12.9292    4.0126    0.0000 C.ar    1  UNL1        0.1628
    131 C          12.9292    5.0126    0.0000 C.ar    1  UNL1        0.2006
    132 C           6.8671    6.5126    0.0000 C.ar    1  UNL1        0.1628
    133 C           5.1350    6.5126    0.0000 C.ar    1  UNL1        0.1628
    134 C           6.0010    7.0126    0.0000 C.ar    1  UNL1        0.2006
    135 H          18.0877   -3.9380    0.0000 H       1  UNL1        0.0801
    136 H          19.4467   -1.6049    0.0000 H       1  UNL1        0.0813
    137 H          20.3449   -1.0734    0.0000 H       1  UNL1        0.0837
    138 H          17.4864   -4.5347    0.0000 H       1  UNL1        0.0670
    139 H          22.0378   -5.2289    0.0000 H       1  UNL1        0.0470
    140 H          20.5984   -3.7955    0.0000 H       1  UNL1        0.1098
    141 H          16.1711   -4.0930    0.0000 H       1  UNL1        0.0725
    142 H          16.8103   -3.0980    0.0000 H       1  UNL1        0.0725
    143 H          18.9643   -6.5097    0.0000 H       1  UNL1        0.0662
    144 H           9.1360    0.2026    0.0000 H       1  UNL1        0.0813
    145 H           7.7331    0.3926    0.0000 H       1  UNL1        0.0801
    146 H          23.2413   -2.4779    0.0000 H       1  UNL1        0.0663
    147 H           9.4651    0.3926    0.0000 H       1  UNL1        0.0837
    148 H           7.7331    2.6326    0.0000 H       1  UNL1        0.0670
    149 H          22.4462   -7.5240    0.0000 H       1  UNL1        0.2143
    150 H          10.0021    1.7026    0.0000 H       1  UNL1        0.1098
    151 H           6.2565    2.6203    0.0000 H       1  UNL1        0.0725
    152 H           6.6550    1.9300    0.0000 H       1  UNL1        0.0725
    153 H          25.2985   -5.2086    0.0000 H       1  UNL1        0.2924
    154 H          25.5064   -3.6891    0.0000 H       1  UNL1        0.2923
    155 H          18.8200    0.9142    0.0000 H       1  UNL1        0.0664
    156 H          13.9432   -1.8764    0.0000 H       1  UNL1        0.0664
    157 H          21.2748   -0.4048    0.0000 H       1  UNL1        0.0663
    158 H          23.3932   -2.2449    0.0000 H       1  UNL1        0.0663
    159 H          14.7425    1.5696    0.0000 H       1  UNL1        0.2923
    160 H          10.0214   -2.3008    0.0000 H       1  UNL1        0.0665
    161 H          15.4441    1.9711    0.0000 H       1  UNL1        0.2923
    162 H           9.1360   -2.1774    0.0000 H       1  UNL1        0.0663
    163 H           6.3301   -2.1774    0.0000 H       1  UNL1        0.0663
    164 H           4.2690    1.6326    0.0000 H       1  UNL1        0.0663
    165 H           5.6720   -0.7974    0.0000 H       1  UNL1        0.0663
    166 H          18.8163    2.6892    0.0000 H       1  UNL1        0.2923
    167 H          16.4581    3.2388    0.0000 H       1  UNL1        0.2924
    168 H          13.1358    1.3377    0.0000 H       1  UNL1        0.2924
    169 H          12.0632    2.8926    0.0000 H       1  UNL1        0.0663
    170 H          10.6603    5.3226    0.0000 H       1  UNL1        0.0663
    171 H           4.5981    5.2026    0.0000 H       1  UNL1        0.0663
    172 H           7.4040    5.2026    0.0000 H       1  UNL1        0.0663
    173 H          25.0306   -1.6803    0.0000 H       1  UNL1        0.2923
    174 H          21.6046    1.2955    0.0000 H       1  UNL1        0.2923
    175 H          23.9746    1.3827    0.0000 H       1  UNL1        0.2924
    176 H          13.6940   -2.2828    0.0000 H       1  UNL1        0.2924
    177 H          10.3221   -4.0065    0.0000 H       1  UNL1        0.2923
    178 H          12.6903   -4.1342    0.0000 H       1  UNL1        0.2924
    179 H           6.0010   -4.6074    0.0000 H       1  UNL1        0.2923
    180 H           9.4651   -4.6074    0.0000 H       1  UNL1        0.2923
    181 H           3.7320   -2.2974    0.0000 H       1  UNL1        0.2923
    182 H           2.5369    1.6326    0.0000 H       1  UNL1        0.2923
    183 H           7.1962   -5.2974    0.0000 H       1  UNL1        0.2924
    184 H           2.0000   -0.6774    0.0000 H       1  UNL1        0.2924
    185 H          11.5263    6.8226    0.0000 H       1  UNL1        0.2923
    186 H          14.3322    3.8226    0.0000 H       1  UNL1        0.2923
    187 H          13.7953    6.1326    0.0000 H       1  UNL1        0.2924
    188 H           7.7331    7.6326    0.0000 H       1  UNL1        0.2923
    189 H           3.7320    6.7026    0.0000 H       1  UNL1        0.2923
    190 H           5.4641    8.3226    0.0000 H       1  UNL1        0.2924
@<TRIPOS>BOND
     1     1    56    1
     2     1    58    1
     3     2    53    1
     4     2    65    1
     5     3    55    1
     6     3    67    1
     7     4    59    1
     8     4    63    1
     9     5    54    1
    10     5    78    1
    11    58     6    1
    12     6    80    1
    13    59     7    1
    14     7   149    1
    15     8    62    1
    16     8    82    1
    17     9    75    1
    18     9    77    1
    19    10    65    2
    20    11    66    2
    21    71    12    1
    22    12    90    1
    23    72    13    1
    24    13    91    1
    25    14    67    2
    26    74    15    1
    27    15    89    1
    28    16    70    1
    29    16   153    1
    30    17    69    2
    31    77    18    1
    32    18    96    1
    33    19    76    1
    34    19   154    1
    35    20    78    2
    36    21    79    1
    37    21   104    1
    38    22    80    2
    39    23    82    2
    40    24    97    1
    41    24   105    1
    42    25    88    1
    43    25   159    1
    44    26    93    1
    45    26   161    1
    46    27    89    2
    47    28    90    2
    48    29    91    2
    49    30    94    1
    50    30   166    1
    51    31    95    1
    52    31   167    1
    53    32    98    1
    54    32   168    1
    55    33    96    2
    56    34   104    2
    57    35   107    1
    58    35   173    1
    59    36   108    1
    60    36   174    1
    61    37   110    1
    62    37   175    1
    63    38   111    1
    64    38   176    1
    65    39   117    1
    66    39   177    1
    67    40   120    1
    68    40   178    1
    69    41   121    1
    70    41   179    1
    71    42   122    1
    72    42   180    1
    73    43   123    1
    74    43   181    1
    75    44   124    1
    76    44   182    1
    77    45   127    1
    78    45   183    1
    79    46   128    1
    80    46   184    1
    81    47   129    1
    82    47   185    1
    83    48   130    1
    84    48   186    1
    85    49   131    1
    86    49   187    1
    87    50   132    1
    88    50   188    1
    89    51   133    1
    90    51   189    1
    91    52   134    1
    92    52   190    1
    93    53    54    1
    94    53    56    1
    95    53   135    1
    96    54    55    1
    97    54   136    1
    98    55    58    1
    99    55   137    1
   100    56    62    1
   101    56   138    1
   102    57    59    1
   103    57    60    1
   104    57    61    1
   105    57   139    1
   106    58   140    1
   107    59    66    1
   108    60    63   ar
   109    60    64   ar
   110    61    65    1
   111    61    68    2
   112    62   141    1
   113    62   142    1
   114    63    70   ar
   115    64    67    1
   116    64    73   ar
   117    66    69    1
   118    68    69    1
   119    68   143    1
   120    70    76   ar
   121    71    72    1
   122    71    74    1
   123    71   144    1
   124    72    75    1
   125    72   145    1
   126    73    76   ar
   127    73   146    1
   128    74    77    1
   129    74   147    1
   130    75    79    1
   131    75   148    1
   132    77   150    1
   133    78    81    1
   134    79   151    1
   135    79   152    1
   136    80    86    1
   137    81    83   ar
   138    81    87   ar
   139    82    84    1
   140    83    85    1
   141    83    88   ar
   142    84    85   ar
   143    84    92   ar
   144    85    93   ar
   145    86    99   ar
   146    86   100   ar
   147    87    94   ar
   148    87   155    1
   149    88    95   ar
   150    89   101    1
   151    90   102    1
   152    91   103    1
   153    92    97   ar
   154    92   156    1
   155    93    98   ar
   156    94    95   ar
   157    96   106    1
   158    97    98   ar
   159    99   108   ar
   160    99   157    1
   161   100   107   ar
   162   100   158    1
   163   101   105   ar
   164   101   109   ar
   165   102   113   ar
   166   102   114   ar
   167   103   115   ar
   168   103   116   ar
   169   104   112    1
   170   105   111   ar
   171   106   118   ar
   172   106   119   ar
   173   107   110   ar
   174   108   110   ar
   175   109   117   ar
   176   109   160    1
   177   111   120   ar
   178   112   125   ar
   179   112   126   ar
   180   113   122   ar
   181   113   162    1
   182   114   121   ar
   183   114   163    1
   184   115   124   ar
   185   115   164    1
   186   116   123   ar
   187   116   165    1
   188   117   120   ar
   189   118   130   ar
   190   118   169    1
   191   119   129   ar
   192   119   170    1
   193   121   127   ar
   194   122   127   ar
   195   123   128   ar
   196   124   128   ar
   197   125   133   ar
   198   125   171    1
   199   126   132   ar
   200   126   172    1
   201   129   131   ar
   202   130   131   ar
   203   132   134   ar
   204   133   134   ar
