@<TRIPOS>MOLECULE
17318
 36 35 0 0 0
SMALL
GASTEIGER

@<TRIPOS>ATOM
      1 SI          3.7320    0.0000    0.0000 Si      1  UNL1        0.0000
      2 O           2.8660   -0.5000    0.0000 O.3     1  UNL1        0.0000
      3 O           3.2320    0.8660    0.0000 O.3     1  UNL1        0.0000
      4 O           4.2320   -0.8660    0.0000 O.3     1  UNL1        0.0000
      5 O           7.1962   -0.0000    0.0000 O.3     1  UNL1        0.0000
      6 O           8.0622    1.5000    0.0000 O.2     1  UNL1        0.0000
      7 C           4.5981    0.5000    0.0000 C.3     1  UNL1        0.0000
      8 C           5.4641    0.0000    0.0000 C.3     1  UNL1        0.0000
      9 C           6.3301    0.5000    0.0000 C.3     1  UNL1        0.0000
     10 C           2.0000   -0.0000    0.0000 C.3     1  UNL1        0.0000
     11 C           3.7320    1.7320    0.0000 C.3     1  UNL1        0.0000
     12 C           3.7320   -1.7320    0.0000 C.3     1  UNL1        0.0000
     13 C           8.0622    0.5000    0.0000 C.2     1  UNL1        0.0000
     14 C           8.9282   -0.0000    0.0000 C.2     1  UNL1        0.0000
     15 C           9.7942    0.5000    0.0000 C.3     1  UNL1        0.0000
     16 C           8.9282   -1.0000    0.0000 C.2     1  UNL1        0.0000
     17 H           4.9966    0.9749    0.0000 H       1  UNL1        0.0000
     18 H           4.1996    0.9749    0.0000 H       1  UNL1        0.0000
     19 H           5.0656   -0.4749    0.0000 H       1  UNL1        0.0000
     20 H           5.8626   -0.4749    0.0000 H       1  UNL1        0.0000
     21 H           6.7287    0.9749    0.0000 H       1  UNL1        0.0000
     22 H           5.9316    0.9749    0.0000 H       1  UNL1        0.0000
     23 H           2.3100    0.5369    0.0000 H       1  UNL1        0.0000
     24 H           1.4631    0.3100    0.0000 H       1  UNL1        0.0000
     25 H           1.6900   -0.5369    0.0000 H       1  UNL1        0.0000
     26 H           4.2690    1.4220    0.0000 H       1  UNL1        0.0000
     27 H           4.0420    2.2690    0.0000 H       1  UNL1        0.0000
     28 H           3.1951    2.0420    0.0000 H       1  UNL1        0.0000
     29 H           3.1951   -1.4220    0.0000 H       1  UNL1        0.0000
     30 H           3.4220   -2.2690    0.0000 H       1  UNL1        0.0000
     31 H           4.2690   -2.0420    0.0000 H       1  UNL1        0.0000
     32 H          10.1042   -0.0369    0.0000 H       1  UNL1        0.0000
     33 H          10.3312    0.8100    0.0000 H       1  UNL1        0.0000
     34 H           9.4842    1.0369    0.0000 H       1  UNL1        0.0000
     35 H           8.3913   -1.3100    0.0000 H       1  UNL1        0.0000
     36 H           9.4651   -1.3100    0.0000 H       1  UNL1        0.0000
@<TRIPOS>BOND
     1     1     2    1
     2     1     3    1
     3     1     4    1
     4     1     7    1
     5     2    10    1
     6     3    11    1
     7     4    12    1
     8     5     9    1
     9     5    13    1
    10     6    13    2
    11     7     8    1
    12     7    17    1
    13     7    18    1
    14     8     9    1
    15     8    19    1
    16     8    20    1
    17     9    21    1
    18     9    22    1
    19    10    23    1
    20    10    24    1
    21    10    25    1
    22    11    26    1
    23    11    27    1
    24    11    28    1
    25    12    29    1
    26    12    30    1
    27    12    31    1
    28    13    14    1
    29    14    15    1
    30    14    16    2
    31    15    32    1
    32    15    33    1
    33    15    34    1
    34    16    35    1
    35    16    36    1
