@<TRIPOS>MOLECULE
175
 7 6 0 0 0
SMALL
GASTEIGER

@<TRIPOS>ATOM
      1 O           2.0000    0.7500    0.0000 O.co2   1  UNL1       -0.5501
      2 O           3.7320    0.7500    0.0000 O.co2   1  UNL1       -0.5501
      3 C           2.8660   -0.7500    0.0000 C.3     1  UNL1       -0.0252
      4 C           2.8660    0.2500    0.0000 C.2     1  UNL1        0.0387
      5 H           2.2460   -0.7500    0.0000 H       1  UNL1        0.0289
      6 H           2.8660   -1.3700    0.0000 H       1  UNL1        0.0289
      7 H           3.4860   -0.7500    0.0000 H       1  UNL1        0.0289
@<TRIPOS>UNITY_ATOM_ATTR
1 1
charge -1
@<TRIPOS>BOND
     1     1     4   ar
     2     2     4   ar
     3     3     4    1
     4     3     5    1
     5     3     6    1
     6     3     7    1
