@<TRIPOS>MOLECULE
1990
 10 9 0 0 0
SMALL
GASTEIGER

@<TRIPOS>ATOM
      1 O           4.5981   -0.0600    0.0000 O.3     1  UNL1       -0.2952
      2 O           2.8660   -1.0600    0.0000 O.2     1  UNL1       -0.2740
      3 N           3.7320    0.4400    0.0000 N.am    1  UNL1       -0.1977
      4 C           2.8660   -0.0600    0.0000 C.2     1  UNL1        0.2323
      5 C           2.0000    0.4400    0.0000 C.3     1  UNL1        0.0141
      6 H           2.3100    0.9769    0.0000 H       1  UNL1        0.0323
      7 H           1.4631    0.7500    0.0000 H       1  UNL1        0.0323
      8 H           1.6900   -0.0969    0.0000 H       1  UNL1        0.0323
      9 H           3.7320    1.0600    0.0000 H       1  UNL1        0.1822
     10 H           5.1350    0.2500    0.0000 H       1  UNL1        0.2414
@<TRIPOS>BOND
     1     1     3    1
     2     1    10    1
     3     2     4    2
     4     3     4   am
     5     3     9    1
     6     4     5    1
     7     5     6    1
     8     5     7    1
     9     5     8    1
