@<TRIPOS>MOLECULE
5375190
 32 32 0 0 0
SMALL
GASTEIGER

@<TRIPOS>ATOM
      1 O           3.8660   -3.0000    0.0000 O.2     1  UNL1       -0.2927
      2 C           3.0000   -0.5000    0.0000 C.3     1  UNL1       -0.0180
      3 C           3.8660    0.0000    0.0000 C.3     1  UNL1        0.0041
      4 C           3.0000   -1.5000    0.0000 C.3     1  UNL1        0.0158
      5 C           4.7320   -0.5000    0.0000 C.2     1  UNL1       -0.0620
      6 C           2.0000   -0.5000    0.0000 C.3     1  UNL1       -0.0586
      7 C           2.5000    0.3660    0.0000 C.3     1  UNL1       -0.0586
      8 C           3.8660   -2.0000    0.0000 C.2     1  UNL1        0.1566
      9 C           3.8660    1.0000    0.0000 C.2     1  UNL1       -0.0764
     10 C           4.7320   -1.5000    0.0000 C.2     1  UNL1       -0.0196
     11 C           5.5981   -0.0000    0.0000 C.3     1  UNL1       -0.0428
     12 C           4.7320    1.5000    0.0000 C.2     1  UNL1       -0.0657
     13 C           4.7320    2.5000    0.0000 C.2     1  UNL1       -0.0691
     14 C           5.5981    3.0000    0.0000 C.2     1  UNL1       -0.0987
     15 H           4.4030    0.3100    0.0000 H       1  UNL1        0.0393
     16 H           2.3894   -1.3923    0.0000 H       1  UNL1        0.0350
     17 H           2.7880   -2.0826    0.0000 H       1  UNL1        0.0350
     18 H           2.0000    0.1200    0.0000 H       1  UNL1        0.0235
     19 H           1.3800   -0.5000    0.0000 H       1  UNL1        0.0235
     20 H           2.0000   -1.1200    0.0000 H       1  UNL1        0.0235
     21 H           3.0369    0.6760    0.0000 H       1  UNL1        0.0235
     22 H           2.1900    0.9030    0.0000 H       1  UNL1        0.0235
     23 H           1.9631    0.0560    0.0000 H       1  UNL1        0.0235
     24 H           3.3291    1.3100    0.0000 H       1  UNL1        0.0578
     25 H           5.2690   -1.8100    0.0000 H       1  UNL1        0.0652
     26 H           5.9081   -0.5369    0.0000 H       1  UNL1        0.0275
     27 H           6.1350    0.3100    0.0000 H       1  UNL1        0.0275
     28 H           5.2881    0.5369    0.0000 H       1  UNL1        0.0275
     29 H           5.2690    1.1900    0.0000 H       1  UNL1        0.0614
     30 H           4.1951    2.8100    0.0000 H       1  UNL1        0.0612
     31 H           6.1350    2.6900    0.0000 H       1  UNL1        0.0535
     32 H           5.5981    3.6200    0.0000 H       1  UNL1        0.0535
@<TRIPOS>BOND
     1     1     8    2
     2     2     3    1
     3     2     4    1
     4     2     6    1
     5     2     7    1
     6     3     5    1
     7     3     9    1
     8     3    15    1
     9     4     8    1
    10     4    16    1
    11     4    17    1
    12     5    10    2
    13     5    11    1
    14     6    18    1
    15     6    19    1
    16     6    20    1
    17     7    21    1
    18     7    22    1
    19     7    23    1
    20     8    10    1
    21     9    12    2
    22     9    24    1
    23    10    25    1
    24    11    26    1
    25    11    27    1
    26    11    28    1
    27    12    13    1
    28    12    29    1
    29    13    14    2
    30    13    30    1
    31    14    31    1
    32    14    32    1
