@<TRIPOS>MOLECULE
642709
 34 34 0 0 0
SMALL
GASTEIGER

@<TRIPOS>ATOM
      1 O           3.6750   -1.5587    0.0000 O.3     1  UNL1        0.0000
      2 O           2.0570   -1.5587    0.0000 O.3     1  UNL1        0.0000
      3 O           3.5471    1.1149    0.0000 O.3     1  UNL1        0.0000
      4 C           3.3660   -0.6076    0.0000 C.3     1  UNL1        0.0000
      5 C           2.3660   -0.6076    0.0000 C.3     1  UNL1        0.0000
      6 C           3.9538    0.2014    0.0000 C.3     1  UNL1        0.0000
      7 C           2.8660   -3.1465    0.0000 C.3     1  UNL1        0.0000
      8 C           3.7281    2.8375    0.0000 C.3     1  UNL1        0.0000
      9 C           5.1294    1.8194    0.0000 C.3     1  UNL1        0.0000
     10 C           2.0000   -3.6465    0.0000 C.3     1  UNL1        0.0000
     11 C           4.3159    3.6465    0.0000 C.3     1  UNL1        0.0000
     12 C           5.7172    2.6284    0.0000 C.3     1  UNL1        0.0000
     13 B           2.8660   -2.1465    0.0000 B       1  UNL1        0.0000
     14 B           4.1349    1.9239    0.0000 B       1  UNL1        0.0000
     15 H           3.9784   -0.7046    0.0000 H       1  UNL1        0.0000
     16 H           2.4308    0.0090    0.0000 H       1  UNL1        0.0000
     17 H           1.7596   -0.4787    0.0000 H       1  UNL1        0.0000
     18 H           4.3845   -0.2446    0.0000 H       1  UNL1        0.0000
     19 H           4.4678    0.5481    0.0000 H       1  UNL1        0.0000
     20 H           3.0781   -3.7291    0.0000 H       1  UNL1        0.0000
     21 H           3.4766   -3.0388    0.0000 H       1  UNL1        0.0000
     22 H           3.2974    3.2835    0.0000 H       1  UNL1        0.0000
     23 H           3.2141    2.4908    0.0000 H       1  UNL1        0.0000
     24 H           4.9585    1.2234    0.0000 H       1  UNL1        0.0000
     25 H           5.6866    1.5476    0.0000 H       1  UNL1        0.0000
     26 H           1.6900   -3.1096    0.0000 H       1  UNL1        0.0000
     27 H           1.4631   -3.9565    0.0000 H       1  UNL1        0.0000
     28 H           2.3100   -4.1834    0.0000 H       1  UNL1        0.0000
     29 H           4.8175    3.2821    0.0000 H       1  UNL1        0.0000
     30 H           4.6803    4.1481    0.0000 H       1  UNL1        0.0000
     31 H           3.8143    4.0109    0.0000 H       1  UNL1        0.0000
     32 H           6.2188    2.2640    0.0000 H       1  UNL1        0.0000
     33 H           6.0816    3.1300    0.0000 H       1  UNL1        0.0000
     34 H           5.2156    2.9928    0.0000 H       1  UNL1        0.0000
@<TRIPOS>BOND
     1     1     4    1
     2     1    13    1
     3     2     5    1
     4     2    13    1
     5     3     6    1
     6     3    14    1
     7     4     5    1
     8     4     6    1
     9     4    15    1
    10     5    16    1
    11     5    17    1
    12     6    18    1
    13     6    19    1
    14     7    10    1
    15     7    13    1
    16     7    20    1
    17     7    21    1
    18     8    11    1
    19     8    14    1
    20     8    22    1
    21     8    23    1
    22     9    12    1
    23     9    14    1
    24     9    24    1
    25     9    25    1
    26    10    26    1
    27    10    27    1
    28    10    28    1
    29    11    29    1
    30    11    30    1
    31    11    31    1
    32    12    32    1
    33    12    33    1
    34    12    34    1
