@<TRIPOS>MOLECULE
71351181
 34 34 0 0 0
SMALL
GASTEIGER

@<TRIPOS>ATOM
      1 O           8.9282   -1.0000    0.0000 O.3     1  UNL1       -0.4580
      2 O          10.6603   -1.0000    0.0000 O.2     1  UNL1       -0.2456
      3 C           6.3301   -0.5000    0.0000 C.3     1  UNL1       -0.0497
      4 C           7.1962   -1.0000    0.0000 C.3     1  UNL1       -0.0154
      5 C           5.4641   -1.0000    0.0000 C.3     1  UNL1       -0.0529
      6 C           8.0622   -0.5000    0.0000 C.3     1  UNL1        0.1068
      7 C           4.5981   -0.5000    0.0000 C.3     1  UNL1       -0.0531
      8 C           3.7320   -1.0000    0.0000 C.3     1  UNL1       -0.0533
      9 C           8.0622    0.5000    0.0000 C.3     1  UNL1        0.0031
     10 C           2.8660   -0.5000    0.0000 C.3     1  UNL1       -0.0559
     11 C           8.9282    1.0000    0.0000 C.2     1  UNL1       -0.0738
     12 C           9.7942   -0.5000    0.0000 C.2     1  UNL1        0.3319
     13 C           2.0000   -1.0000    0.0000 C.3     1  UNL1       -0.0653
     14 C           9.7942    0.5000    0.0000 C.2     1  UNL1        0.0187
     15 H           6.7287   -0.0251    0.0000 H       1  UNL1        0.0266
     16 H           5.9316   -0.0251    0.0000 H       1  UNL1        0.0266
     17 H           6.7976   -1.4750    0.0000 H       1  UNL1        0.0301
     18 H           7.5947   -1.4750    0.0000 H       1  UNL1        0.0301
     19 H           5.0656   -1.4750    0.0000 H       1  UNL1        0.0265
     20 H           5.8626   -1.4750    0.0000 H       1  UNL1        0.0265
     21 H           8.0622   -1.1200    0.0000 H       1  UNL1        0.0737
     22 H           4.9966   -0.0251    0.0000 H       1  UNL1        0.0265
     23 H           4.1996   -0.0251    0.0000 H       1  UNL1        0.0265
     24 H           3.3335   -1.4750    0.0000 H       1  UNL1        0.0265
     25 H           4.1306   -1.4750    0.0000 H       1  UNL1        0.0265
     26 H           7.8501    1.0826    0.0000 H       1  UNL1        0.0343
     27 H           7.4516    0.3923    0.0000 H       1  UNL1        0.0343
     28 H           3.2646   -0.0251    0.0000 H       1  UNL1        0.0263
     29 H           2.4675   -0.0251    0.0000 H       1  UNL1        0.0263
     30 H           8.9282    1.6200    0.0000 H       1  UNL1        0.0575
     31 H           1.6900   -0.4631    0.0000 H       1  UNL1        0.0230
     32 H           1.4631   -1.3100    0.0000 H       1  UNL1        0.0230
     33 H           2.3100   -1.5369    0.0000 H       1  UNL1        0.0230
     34 H          10.3312    0.8100    0.0000 H       1  UNL1        0.0686
@<TRIPOS>BOND
     1     1     6    1
     2     1    12    1
     3     2    12    2
     4     3     4    1
     5     3     5    1
     6     3    15    1
     7     3    16    1
     8     6     4    1
     9     4    17    1
    10     4    18    1
    11     5     7    1
    12     5    19    1
    13     5    20    1
    14     6     9    1
    15     6    21    1
    16     7     8    1
    17     7    22    1
    18     7    23    1
    19     8    10    1
    20     8    24    1
    21     8    25    1
    22     9    11    1
    23     9    26    1
    24     9    27    1
    25    10    13    1
    26    10    28    1
    27    10    29    1
    28    11    14    2
    29    11    30    1
    30    12    14    1
    31    13    31    1
    32    13    32    1
    33    13    33    1
    34    14    34    1
