MODEL 1
REMARK VINA RESULT:    -5.433      0.000      0.000
REMARK INTER + INTRA:          -5.917
REMARK INTER:                  -6.789
REMARK INTRA:                   0.873
REMARK UNBOUND:                 0.946
REMARK  6 active torsions:
REMARK  status: ('A' for Active; 'I' for Inactive)
REMARK    1  A    between atoms: O_1  and  C_12 
REMARK    2  A    between atoms: O_1  and  C_13 
REMARK    3  A    between atoms: O_2  and  C_9 
REMARK    4  A    between atoms: O_3  and  C_10 
REMARK    5  A    between atoms: O_4  and  C_11 
REMARK    6  A    between atoms: C_6  and  C_12 
ROOT
ATOM      1  C   UNL d   1      -0.727  22.270  37.174  0.00  0.00     0.044 A 
ATOM      2  C   UNL d   1      -1.202  23.084  37.507  0.00  0.00     0.057 A 
ATOM      3  C   UNL d   1      -1.198  21.628  36.569  0.00  0.00     0.057 A 
ATOM      4  C   UNL d   1      -2.145  21.800  36.298  0.00  0.00     0.102 A 
ATOM      5  C   UNL d   1      -2.149  23.256  37.235  0.00  0.00     0.102 A 
ATOM      6  C   UNL d   1      -2.620  22.615  36.630  0.00  0.00     0.132 A 
ENDROOT
BRANCH   1   7
ATOM      7  C   UNL d   1       0.220  22.097  37.446  0.00  0.00     0.293 C 
ATOM      8  O   UNL d   1       0.416  21.503  38.226  0.00  0.00    -0.259 OA
BRANCH   7   9
ATOM      9  O   UNL d   1       0.971  22.519  36.938  0.00  0.00    -0.318 OA
BRANCH   9  10
ATOM     10  C   UNL d   1       1.910  22.207  37.083  0.00  0.00     0.174 C 
ATOM     11  C   UNL d   1       2.660  22.625  36.570  0.00  0.00     0.034 C 
ENDBRANCH   9  10
ENDBRANCH   7   9
ENDBRANCH   1   7
BRANCH   5  12
ATOM     12  O   UNL d   1      -2.624  24.071  37.568  0.00  0.00    -0.358 OA
ATOM     13  H   UNL d   1      -2.908  24.061  38.119  0.00  0.00     0.217 HD
ENDBRANCH   5  12
BRANCH   4  14
ATOM     14  O   UNL d   1      -2.616  21.158  35.693  0.00  0.00    -0.358 OA
ATOM     15  H   UNL d   1      -2.706  20.572  35.873  0.00  0.00     0.217 HD
ENDBRANCH   4  14
BRANCH   6  16
ATOM     16  O   UNL d   1      -3.567  22.787  36.359  0.00  0.00    -0.356 OA
ATOM     17  H   UNL d   1      -3.783  23.368  36.340  0.00  0.00     0.218 HD
ENDBRANCH   6  16
TORSDOF 6
ENDMDL
MODEL 2
REMARK VINA RESULT:    -5.008     14.095     15.151
REMARK INTER + INTRA:          -5.379
REMARK INTER:                  -6.266
REMARK INTRA:                   0.887
REMARK UNBOUND:                 0.946
REMARK  6 active torsions:
REMARK  status: ('A' for Active; 'I' for Inactive)
REMARK    1  A    between atoms: O_1  and  C_12 
REMARK    2  A    between atoms: O_1  and  C_13 
REMARK    3  A    between atoms: O_2  and  C_9 
REMARK    4  A    between atoms: O_3  and  C_10 
REMARK    5  A    between atoms: O_4  and  C_11 
REMARK    6  A    between atoms: C_6  and  C_12 
ROOT
ATOM      1  C   UNL d   1      -1.923  36.489  31.852  0.00  0.00     0.044 A 
ATOM      2  C   UNL d   1      -1.960  35.565  32.232  0.00  0.00     0.057 A 
ATOM      3  C   UNL d   1      -2.199  36.652  30.905  0.00  0.00     0.057 A 
ATOM      4  C   UNL d   1      -2.513  35.891  30.337  0.00  0.00     0.102 A 
ATOM      5  C   UNL d   1      -2.274  34.803  31.664  0.00  0.00     0.102 A 
ATOM      6  C   UNL d   1      -2.550  34.966  30.717  0.00  0.00     0.132 A 
ENDROOT
BRANCH   1   7
ATOM      7  C   UNL d   1      -1.610  37.250  32.420  0.00  0.00     0.293 C 
ATOM      8  O   UNL d   1      -0.711  37.657  32.258  0.00  0.00    -0.259 OA
BRANCH   7   9
ATOM      9  O   UNL d   1      -2.195  37.605  33.148  0.00  0.00    -0.318 OA
BRANCH   9  10
ATOM     10  C   UNL d   1      -1.964  38.466  33.601  0.00  0.00     0.174 C 
ATOM     11  C   UNL d   1      -2.564  38.834  34.311  0.00  0.00     0.034 C 
ENDBRANCH   9  10
ENDBRANCH   7   9
ENDBRANCH   1   7
BRANCH   5  12
ATOM     12  O   UNL d   1      -2.311  33.879  32.044  0.00  0.00    -0.358 OA
ATOM     13  H   UNL d   1      -1.789  33.596  32.222  0.00  0.00     0.217 HD
ENDBRANCH   5  12
BRANCH   4  14
ATOM     14  O   UNL d   1      -2.789  36.054  29.390  0.00  0.00    -0.358 OA
ATOM     15  H   UNL d   1      -2.554  35.705  28.934  0.00  0.00     0.217 HD
ENDBRANCH   4  14
BRANCH   6  16
ATOM     16  O   UNL d   1      -2.864  34.205  30.149  0.00  0.00    -0.356 OA
ATOM     17  H   UNL d   1      -2.761  33.621  30.330  0.00  0.00     0.218 HD
ENDBRANCH   6  16
TORSDOF 6
ENDMDL
MODEL 3
REMARK VINA RESULT:    -4.947     13.781     14.564
REMARK INTER + INTRA:          -5.303
REMARK INTER:                  -6.186
REMARK INTRA:                   0.884
REMARK UNBOUND:                 0.946
REMARK  6 active torsions:
REMARK  status: ('A' for Active; 'I' for Inactive)
REMARK    1  A    between atoms: O_1  and  C_12 
REMARK    2  A    between atoms: O_1  and  C_13 
REMARK    3  A    between atoms: O_2  and  C_9 
REMARK    4  A    between atoms: O_3  and  C_10 
REMARK    5  A    between atoms: O_4  and  C_11 
REMARK    6  A    between atoms: C_6  and  C_12 
ROOT
ATOM      1  C   UNL d   1      -0.709  36.203  32.047  0.00  0.00     0.044 A 
ATOM      2  C   UNL d   1      -1.230  37.042  32.202  0.00  0.00     0.057 A 
ATOM      3  C   UNL d   1      -1.174  35.318  32.048  0.00  0.00     0.057 A 
ATOM      4  C   UNL d   1      -2.161  35.272  32.205  0.00  0.00     0.102 A 
ATOM      5  C   UNL d   1      -2.217  36.996  32.358  0.00  0.00     0.102 A 
ATOM      6  C   UNL d   1      -2.682  36.111  32.360  0.00  0.00     0.132 A 
ENDROOT
BRANCH   1   7
ATOM      7  C   UNL d   1       0.278  36.249  31.891  0.00  0.00     0.293 C 
ATOM      8  O   UNL d   1       0.630  36.475  30.982  0.00  0.00    -0.259 OA
BRANCH   7   9
ATOM      9  O   UNL d   1       0.912  36.068  32.642  0.00  0.00    -0.318 OA
BRANCH   9  10
ATOM     10  C   UNL d   1       1.898  36.068  32.475  0.00  0.00     0.174 C 
ATOM     11  C   UNL d   1       2.536  36.032  33.245  0.00  0.00     0.034 C 
ENDBRANCH   9  10
ENDBRANCH   7   9
ENDBRANCH   1   7
BRANCH   5  12
ATOM     12  O   UNL d   1      -2.738  37.835  32.514  0.00  0.00    -0.358 OA
ATOM     13  H   UNL d   1      -2.984  38.140  32.033  0.00  0.00     0.217 HD
ENDBRANCH   5  12
BRANCH   4  14
ATOM     14  O   UNL d   1      -2.626  34.386  32.206  0.00  0.00    -0.358 OA
ATOM     15  H   UNL d   1      -3.241  34.359  32.130  0.00  0.00     0.217 HD
ENDBRANCH   4  14
BRANCH   6  16
ATOM     16  O   UNL d   1      -3.669  36.065  32.516  0.00  0.00    -0.356 OA
ATOM     17  H   UNL d   1      -4.038  36.512  32.298  0.00  0.00     0.218 HD
ENDBRANCH   6  16
TORSDOF 6
ENDMDL
MODEL 4
REMARK VINA RESULT:    -4.696      1.511      2.572
REMARK INTER + INTRA:          -4.985
REMARK INTER:                  -5.853
REMARK INTRA:                   0.868
REMARK UNBOUND:                 0.946
REMARK  6 active torsions:
REMARK  status: ('A' for Active; 'I' for Inactive)
REMARK    1  A    between atoms: O_1  and  C_12 
REMARK    2  A    between atoms: O_1  and  C_13 
REMARK    3  A    between atoms: O_2  and  C_9 
REMARK    4  A    between atoms: O_3  and  C_10 
REMARK    5  A    between atoms: O_4  and  C_11 
REMARK    6  A    between atoms: C_6  and  C_12 
ROOT
ATOM      1  C   UNL d   1       1.112  22.436  36.716  0.00  0.00     0.044 A 
ATOM      2  C   UNL d   1       0.802  21.585  37.141  0.00  0.00     0.057 A 
ATOM      3  C   UNL d   1       0.472  23.192  36.585  0.00  0.00     0.057 A 
ATOM      4  C   UNL d   1      -0.479  23.098  36.880  0.00  0.00     0.102 A 
ATOM      5  C   UNL d   1      -0.149  21.491  37.435  0.00  0.00     0.102 A 
ATOM      6  C   UNL d   1      -0.790  22.248  37.304  0.00  0.00     0.132 A 
ENDROOT
BRANCH   1   7
ATOM      7  C   UNL d   1       2.064  22.530  36.422  0.00  0.00     0.293 C 
ATOM      8  O   UNL d   1       2.765  22.808  37.078  0.00  0.00    -0.259 OA
BRANCH   7   9
ATOM      9  O   UNL d   1       2.313  22.345  35.471  0.00  0.00    -0.318 OA
BRANCH   9  10
ATOM     10  C   UNL d   1       3.262  22.454  35.173  0.00  0.00     0.174 C 
ATOM     11  C   UNL d   1       3.505  22.306  34.215  0.00  0.00     0.034 C 
ENDBRANCH   9  10
ENDBRANCH   7   9
ENDBRANCH   1   7
BRANCH   5  12
ATOM     12  O   UNL d   1      -0.459  20.641  37.860  0.00  0.00    -0.358 OA
ATOM     13  H   UNL d   1      -0.057  20.179  37.960  0.00  0.00     0.217 HD
ENDBRANCH   5  12
BRANCH   4  14
ATOM     14  O   UNL d   1      -1.120  23.854  36.749  0.00  0.00    -0.358 OA
ATOM     15  H   UNL d   1      -1.614  23.782  36.381  0.00  0.00     0.217 HD
ENDBRANCH   4  14
BRANCH   6  16
ATOM     16  O   UNL d   1      -1.741  22.154  37.599  0.00  0.00    -0.356 OA
ATOM     17  H   UNL d   1      -2.167  21.936  37.205  0.00  0.00     0.218 HD
ENDBRANCH   6  16
TORSDOF 6
ENDMDL
MODEL 5
REMARK VINA RESULT:    -4.676     14.402     15.497
REMARK INTER + INTRA:          -4.960
REMARK INTER:                  -5.907
REMARK INTRA:                   0.946
REMARK UNBOUND:                 0.946
REMARK  6 active torsions:
REMARK  status: ('A' for Active; 'I' for Inactive)
REMARK    1  A    between atoms: O_1  and  C_12 
REMARK    2  A    between atoms: O_1  and  C_13 
REMARK    3  A    between atoms: O_2  and  C_9 
REMARK    4  A    between atoms: O_3  and  C_10 
REMARK    5  A    between atoms: O_4  and  C_11 
REMARK    6  A    between atoms: C_6  and  C_12 
ROOT
ATOM      1  C   UNL d   1       0.218  36.418  31.849  0.00  0.00     0.044 A 
ATOM      2  C   UNL d   1       0.535  35.995  32.697  0.00  0.00     0.057 A 
ATOM      3  C   UNL d   1       0.877  36.819  31.213  0.00  0.00     0.057 A 
ATOM      4  C   UNL d   1       1.854  36.796  31.426  0.00  0.00     0.102 A 
ATOM      5  C   UNL d   1       1.512  35.972  32.910  0.00  0.00     0.102 A 
ATOM      6  C   UNL d   1       2.171  36.373  32.274  0.00  0.00     0.132 A 
ENDROOT
BRANCH   1   7
ATOM      7  C   UNL d   1      -0.759  36.441  31.636  0.00  0.00     0.293 C 
ATOM      8  O   UNL d   1      -1.095  36.038  30.785  0.00  0.00    -0.259 OA
BRANCH   7   9
ATOM      9  O   UNL d   1      -1.400  36.867  32.274  0.00  0.00    -0.318 OA
BRANCH   9  10
ATOM     10  C   UNL d   1      -2.372  36.922  32.045  0.00  0.00     0.174 C 
ATOM     11  C   UNL d   1      -3.003  37.400  32.656  0.00  0.00     0.034 C 
ENDBRANCH   9  10
ENDBRANCH   7   9
ENDBRANCH   1   7
BRANCH   5  12
ATOM     12  O   UNL d   1       1.829  35.548  33.758  0.00  0.00    -0.358 OA
ATOM     13  H   UNL d   1       2.322  35.779  34.054  0.00  0.00     0.217 HD
ENDBRANCH   5  12
BRANCH   4  14
ATOM     14  O   UNL d   1       2.514  37.197  30.790  0.00  0.00    -0.358 OA
ATOM     15  H   UNL d   1       2.449  37.110  30.180  0.00  0.00     0.217 HD
ENDBRANCH   4  14
BRANCH   6  16
ATOM     16  O   UNL d   1       3.148  36.350  32.487  0.00  0.00    -0.356 OA
ATOM     17  H   UNL d   1       3.374  35.908  32.858  0.00  0.00     0.218 HD
ENDBRANCH   6  16
TORSDOF 6
ENDMDL
