MODEL 1
REMARK VINA RESULT:    -8.833      0.000      0.000
REMARK INTER + INTRA:          -8.775
REMARK INTER:                 -10.640
REMARK INTRA:                   1.865
REMARK UNBOUND:                 1.865
REMARK  5 active torsions:
REMARK  status: ('A' for Active; 'I' for Inactive)
REMARK    1  A    between atoms: O_2  and  C_13 
REMARK    2  A    between atoms: O_3  and  C_19 
REMARK    3  A    between atoms: O_5  and  C_17 
REMARK    4  A    between atoms: O_6  and  C_21 
REMARK    5  A    between atoms: C_8  and  C_10 
ROOT
ATOM      1  O   UNL d   1      15.690  -7.551  -1.195  0.00  0.00    -0.309 OA
ATOM      2  O   UNL d   1      18.468  -8.444  -1.888  0.00  0.00    -0.287 OA
ATOM      3  C   UNL d   1      17.220  -7.245  -1.946  0.00  0.00     0.081 A 
ATOM      4  C   UNL d   1      16.012  -8.452  -0.906  0.00  0.00     0.090 A 
ATOM      5  C   UNL d   1      16.294  -6.947  -1.714  0.00  0.00     0.095 A 
ATOM      6  C   UNL d   1      17.542  -8.146  -1.657  0.00  0.00     0.190 A 
ATOM      7  C   UNL d   1      16.938  -8.750  -1.137  0.00  0.00     0.094 A 
ATOM      8  C   UNL d   1      17.860  -6.627  -2.486  0.00  0.00     0.085 A 
ATOM      9  C   UNL d   1      15.944  -6.010  -2.008  0.00  0.00     0.075 A 
ATOM     10  C   UNL d   1      16.568  -5.376  -2.550  0.00  0.00     0.071 A 
ATOM     11  C   UNL d   1      17.532  -5.686  -2.790  0.00  0.00     0.074 A 
ENDROOT
BRANCH   4  12
ATOM     12  C   UNL d   1      15.407  -9.056  -0.386  0.00  0.00     0.001 A 
ATOM     13  C   UNL d   1      14.623  -9.485  -0.834  0.00  0.00     0.054 A 
ATOM     14  C   UNL d   1      14.019 -10.089  -0.314  0.00  0.00     0.102 A 
ATOM     15  C   UNL d   1      14.199 -10.264   0.654  0.00  0.00     0.099 A 
ATOM     16  C   UNL d   1      14.984  -9.835   1.102  0.00  0.00     0.040 A 
ATOM     17  C   UNL d   1      15.588  -9.231   0.582  0.00  0.00     0.017 A 
BRANCH  14  18
ATOM     18  O   UNL d   1      13.234 -10.517  -0.762  0.00  0.00    -0.353 OA
ATOM     19  C   UNL d   1      13.059 -10.349  -1.732  0.00  0.00     0.210 C 
ENDBRANCH  14  18
BRANCH  15  20
ATOM     20  O   UNL d   1      13.595 -10.868   1.174  0.00  0.00    -0.358 OA
ATOM     21  H   UNL d   1      13.790 -11.117   1.706  0.00  0.00     0.217 HD
ENDBRANCH  15  20
ENDBRANCH   4  12
BRANCH   8  22
ATOM     22  O   UNL d   1      18.785  -6.935  -2.712  0.00  0.00    -0.360 OA
ATOM     23  H   UNL d   1      19.087  -6.683  -3.191  0.00  0.00     0.217 HD
ENDBRANCH   8  22
BRANCH  10  24
ATOM     24  O   UNL d   1      16.242  -4.475  -2.836  0.00  0.00    -0.361 OA
ATOM     25  H   UNL d   1      16.375  -3.974  -2.495  0.00  0.00     0.217 HD
ENDBRANCH  10  24
TORSDOF 5
ENDMDL
MODEL 2
REMARK VINA RESULT:    -8.553      2.509      4.819
REMARK INTER + INTRA:          -8.438
REMARK INTER:                 -10.700
REMARK INTRA:                   2.263
REMARK UNBOUND:                 1.865
REMARK  5 active torsions:
REMARK  status: ('A' for Active; 'I' for Inactive)
REMARK    1  A    between atoms: O_2  and  C_13 
REMARK    2  A    between atoms: O_3  and  C_19 
REMARK    3  A    between atoms: O_5  and  C_17 
REMARK    4  A    between atoms: O_6  and  C_21 
REMARK    5  A    between atoms: C_8  and  C_10 
ROOT
ATOM      1  O   UNL d   1      14.769  -9.788  -1.197  0.00  0.00    -0.309 OA
ATOM      2  O   UNL d   1      12.154 -10.903  -0.236  0.00  0.00    -0.287 OA
ATOM      3  C   UNL d   1      13.232 -10.512  -1.535  0.00  0.00     0.081 A 
ATOM      4  C   UNL d   1      14.562  -9.807  -0.219  0.00  0.00     0.090 A 
ATOM      5  C   UNL d   1      14.103 -10.141  -1.855  0.00  0.00     0.095 A 
ATOM      6  C   UNL d   1      13.026 -10.531  -0.557  0.00  0.00     0.190 A 
ATOM      7  C   UNL d   1      13.691 -10.179   0.102  0.00  0.00     0.094 A 
ATOM      8  C   UNL d   1      12.529 -10.882  -2.209  0.00  0.00     0.085 A 
ATOM      9  C   UNL d   1      14.332 -10.114  -2.871  0.00  0.00     0.075 A 
ATOM     10  C   UNL d   1      13.644 -10.479  -3.563  0.00  0.00     0.071 A 
ATOM     11  C   UNL d   1      12.737 -10.866  -3.229  0.00  0.00     0.074 A 
ENDROOT
BRANCH   4  12
ATOM     12  C   UNL d   1      15.228  -9.455   0.439  0.00  0.00     0.001 A 
ATOM     13  C   UNL d   1      16.159  -9.241   0.143  0.00  0.00     0.054 A 
ATOM     14  C   UNL d   1      16.824  -8.889   0.802  0.00  0.00     0.102 A 
ATOM     15  C   UNL d   1      16.559  -8.750   1.756  0.00  0.00     0.099 A 
ATOM     16  C   UNL d   1      15.628  -8.965   2.052  0.00  0.00     0.040 A 
ATOM     17  C   UNL d   1      14.962  -9.317   1.394  0.00  0.00     0.017 A 
BRANCH  14  18
ATOM     18  O   UNL d   1      17.755  -8.675   0.506  0.00  0.00    -0.353 OA
ATOM     19  C   UNL d   1      17.991  -8.709  -0.465  0.00  0.00     0.210 C 
ENDBRANCH  14  18
BRANCH  15  20
ATOM     20  O   UNL d   1      17.224  -8.398   2.414  0.00  0.00    -0.358 OA
ATOM     21  H   UNL d   1      17.029  -8.113   2.929  0.00  0.00     0.217 HD
ENDBRANCH  15  20
ENDBRANCH   4  12
BRANCH   8  22
ATOM     22  O   UNL d   1      11.661 -11.252  -1.877  0.00  0.00    -0.360 OA
ATOM     23  H   UNL d   1      11.460 -11.107  -1.309  0.00  0.00     0.217 HD
ENDBRANCH   8  22
BRANCH  10  24
ATOM     24  O   UNL d   1      13.854 -10.458  -4.540  0.00  0.00    -0.361 OA
ATOM     25  H   UNL d   1      13.606 -10.880  -4.919  0.00  0.00     0.217 HD
ENDBRANCH  10  24
TORSDOF 5
ENDMDL
MODEL 3
REMARK VINA RESULT:    -8.499      1.157      5.109
REMARK INTER + INTRA:          -8.373
REMARK INTER:                 -10.197
REMARK INTRA:                   1.824
REMARK UNBOUND:                 1.865
REMARK  5 active torsions:
REMARK  status: ('A' for Active; 'I' for Inactive)
REMARK    1  A    between atoms: O_2  and  C_13 
REMARK    2  A    between atoms: O_3  and  C_19 
REMARK    3  A    between atoms: O_5  and  C_17 
REMARK    4  A    between atoms: O_6  and  C_21 
REMARK    5  A    between atoms: C_8  and  C_10 
ROOT
ATOM      1  O   UNL d   1      15.496  -8.984  -1.308  0.00  0.00    -0.309 OA
ATOM      2  O   UNL d   1      16.543  -8.989   1.503  0.00  0.00    -0.287 OA
ATOM      3  C   UNL d   1      15.325  -9.435   0.356  0.00  0.00     0.081 A 
ATOM      4  C   UNL d   1      16.365  -8.537  -1.097  0.00  0.00     0.090 A 
ATOM      5  C   UNL d   1      14.976  -9.434  -0.582  0.00  0.00     0.095 A 
ATOM      6  C   UNL d   1      16.194  -8.987   0.566  0.00  0.00     0.190 A 
ATOM      7  C   UNL d   1      16.714  -8.538  -0.160  0.00  0.00     0.094 A 
ATOM      8  C   UNL d   1      14.794  -9.899   1.122  0.00  0.00     0.085 A 
ATOM      9  C   UNL d   1      14.072  -9.896  -0.817  0.00  0.00     0.075 A 
ATOM     10  C   UNL d   1      13.525 -10.366  -0.065  0.00  0.00     0.071 A 
ATOM     11  C   UNL d   1      13.888 -10.367   0.910  0.00  0.00     0.074 A 
ENDROOT
BRANCH   4  12
ATOM     12  C   UNL d   1      16.885  -8.087  -1.824  0.00  0.00     0.001 A 
ATOM     13  C   UNL d   1      16.814  -7.098  -1.951  0.00  0.00     0.054 A 
ATOM     14  C   UNL d   1      17.334  -6.649  -2.678  0.00  0.00     0.102 A 
ATOM     15  C   UNL d   1      17.925  -7.189  -3.277  0.00  0.00     0.099 A 
ATOM     16  C   UNL d   1      17.997  -8.178  -3.149  0.00  0.00     0.040 A 
ATOM     17  C   UNL d   1      17.477  -8.627  -2.422  0.00  0.00     0.017 A 
BRANCH  14  18
ATOM     18  O   UNL d   1      17.262  -5.660  -2.806  0.00  0.00    -0.353 OA
ATOM     19  C   UNL d   1      16.611  -5.131  -2.261  0.00  0.00     0.210 C 
ENDBRANCH  14  18
BRANCH  15  20
ATOM     20  O   UNL d   1      18.445  -6.740  -4.003  0.00  0.00    -0.358 OA
ATOM     21  H   UNL d   1      18.154  -6.526  -4.507  0.00  0.00     0.217 HD
ENDBRANCH  15  20
ENDBRANCH   4  12
BRANCH   8  22
ATOM     22  O   UNL d   1      15.153  -9.894   2.056  0.00  0.00    -0.360 OA
ATOM     23  H   UNL d   1      15.700  -9.630   2.176  0.00  0.00     0.217 HD
ENDBRANCH   8  22
BRANCH  10  24
ATOM     24  O   UNL d   1      12.656 -10.812  -0.281  0.00  0.00    -0.361 OA
ATOM     25  H   UNL d   1      12.253 -10.537  -0.662  0.00  0.00     0.217 HD
ENDBRANCH  10  24
TORSDOF 5
ENDMDL
MODEL 4
REMARK VINA RESULT:    -8.346      1.329      5.058
REMARK INTER + INTRA:          -8.188
REMARK INTER:                 -10.035
REMARK INTRA:                   1.847
REMARK UNBOUND:                 1.865
REMARK  5 active torsions:
REMARK  status: ('A' for Active; 'I' for Inactive)
REMARK    1  A    between atoms: O_2  and  C_13 
REMARK    2  A    between atoms: O_3  and  C_19 
REMARK    3  A    between atoms: O_5  and  C_17 
REMARK    4  A    between atoms: O_6  and  C_21 
REMARK    5  A    between atoms: C_8  and  C_10 
ROOT
ATOM      1  O   UNL d   1      15.385  -9.037  -1.337  0.00  0.00    -0.309 OA
ATOM      2  O   UNL d   1      16.409  -9.080   1.482  0.00  0.00    -0.287 OA
ATOM      3  C   UNL d   1      15.198  -9.506   0.320  0.00  0.00     0.081 A 
ATOM      4  C   UNL d   1      16.254  -8.597  -1.115  0.00  0.00     0.090 A 
ATOM      5  C   UNL d   1      14.856  -9.492  -0.620  0.00  0.00     0.095 A 
ATOM      6  C   UNL d   1      16.068  -9.066   0.542  0.00  0.00     0.190 A 
ATOM      7  C   UNL d   1      16.596  -8.611  -0.175  0.00  0.00     0.094 A 
ATOM      8  C   UNL d   1      14.659  -9.976   1.077  0.00  0.00     0.085 A 
ATOM      9  C   UNL d   1      13.952  -9.946  -0.868  0.00  0.00     0.075 A 
ATOM     10  C   UNL d   1      13.396 -10.422  -0.126  0.00  0.00     0.071 A 
ATOM     11  C   UNL d   1      13.752 -10.437   0.852  0.00  0.00     0.074 A 
ENDROOT
BRANCH   4  12
ATOM     12  C   UNL d   1      16.783  -8.142  -1.832  0.00  0.00     0.001 A 
ATOM     13  C   UNL d   1      17.309  -8.685  -2.486  0.00  0.00     0.054 A 
ATOM     14  C   UNL d   1      17.837  -8.231  -3.203  0.00  0.00     0.102 A 
ATOM     15  C   UNL d   1      17.839  -7.233  -3.266  0.00  0.00     0.099 A 
ATOM     16  C   UNL d   1      17.313  -6.689  -2.612  0.00  0.00     0.040 A 
ATOM     17  C   UNL d   1      16.785  -7.144  -1.894  0.00  0.00     0.017 A 
BRANCH  14  18
ATOM     18  O   UNL d   1      18.363  -8.774  -3.857  0.00  0.00    -0.353 OA
ATOM     19  C   UNL d   1      18.360  -9.772  -3.795  0.00  0.00     0.210 C 
ENDBRANCH  14  18
BRANCH  15  20
ATOM     20  O   UNL d   1      18.367  -6.778  -3.983  0.00  0.00    -0.358 OA
ATOM     21  H   UNL d   1      18.102  -6.647  -4.528  0.00  0.00     0.217 HD
ENDBRANCH  15  20
ENDBRANCH   4  12
BRANCH   8  22
ATOM     22  O   UNL d   1      15.010  -9.984   2.013  0.00  0.00    -0.360 OA
ATOM     23  H   UNL d   1      14.924 -10.482   2.371  0.00  0.00     0.217 HD
ENDBRANCH   8  22
BRANCH  10  24
ATOM     24  O   UNL d   1      12.527 -10.861  -0.353  0.00  0.00    -0.361 OA
ATOM     25  H   UNL d   1      12.510 -11.314  -0.776  0.00  0.00     0.217 HD
ENDBRANCH  10  24
TORSDOF 5
ENDMDL
MODEL 5
REMARK VINA RESULT:    -8.220     26.146     28.203
REMARK INTER + INTRA:          -8.037
REMARK INTER:                  -9.993
REMARK INTRA:                   1.957
REMARK UNBOUND:                 1.865
REMARK  5 active torsions:
REMARK  status: ('A' for Active; 'I' for Inactive)
REMARK    1  A    between atoms: O_2  and  C_13 
REMARK    2  A    between atoms: O_3  and  C_19 
REMARK    3  A    between atoms: O_5  and  C_17 
REMARK    4  A    between atoms: O_6  and  C_21 
REMARK    5  A    between atoms: C_8  and  C_10 
ROOT
ATOM      1  O   UNL d   1      -1.800   3.636 -19.254  0.00  0.00    -0.309 OA
ATOM      2  O   UNL d   1      -0.055   3.862 -16.824  0.00  0.00    -0.287 OA
ATOM      3  C   UNL d   1      -1.063   2.912 -17.864  0.00  0.00     0.081 A 
ATOM      4  C   UNL d   1      -1.373   4.511 -19.025  0.00  0.00     0.090 A 
ATOM      5  C   UNL d   1      -1.645   2.837 -18.674  0.00  0.00     0.095 A 
ATOM      6  C   UNL d   1      -0.637   3.787 -17.634  0.00  0.00     0.190 A 
ATOM      7  C   UNL d   1      -0.791   4.586 -18.215  0.00  0.00     0.094 A 
ATOM      8  C   UNL d   1      -0.893   2.088 -17.250  0.00  0.00     0.085 A 
ATOM      9  C   UNL d   1      -2.097   1.933 -18.926  0.00  0.00     0.075 A 
ATOM     10  C   UNL d   1      -1.940   1.096 -18.326  0.00  0.00     0.071 A 
ATOM     11  C   UNL d   1      -1.335   1.174 -17.483  0.00  0.00     0.074 A 
ENDROOT
BRANCH   4  12
ATOM     12  C   UNL d   1      -1.528   5.311 -19.605  0.00  0.00     0.001 A 
ATOM     13  C   UNL d   1      -1.905   6.149 -19.212  0.00  0.00     0.054 A 
ATOM     14  C   UNL d   1      -2.060   6.948 -19.792  0.00  0.00     0.102 A 
ATOM     15  C   UNL d   1      -1.837   6.909 -20.766  0.00  0.00     0.099 A 
ATOM     16  C   UNL d   1      -1.459   6.071 -21.160  0.00  0.00     0.040 A 
ATOM     17  C   UNL d   1      -1.305   5.272 -20.579  0.00  0.00     0.017 A 
BRANCH  14  18
ATOM     18  O   UNL d   1      -2.438   7.786 -19.399  0.00  0.00    -0.353 OA
ATOM     19  C   UNL d   1      -2.343   7.966 -18.419  0.00  0.00     0.210 C 
ENDBRANCH  14  18
BRANCH  15  20
ATOM     20  O   UNL d   1      -1.992   7.709 -21.347  0.00  0.00    -0.358 OA
ATOM     21  H   UNL d   1      -2.528   7.772 -21.651  0.00  0.00     0.217 HD
ENDBRANCH  15  20
ENDBRANCH   4  12
BRANCH   8  22
ATOM     22  O   UNL d   1      -0.310   2.175 -16.443  0.00  0.00    -0.360 OA
ATOM     23  H   UNL d   1       0.004   2.700 -16.343  0.00  0.00     0.217 HD
ENDBRANCH   8  22
BRANCH  10  24
ATOM     24  O   UNL d   1      -2.369   0.223 -18.559  0.00  0.00    -0.361 OA
ATOM     25  H   UNL d   1      -2.148  -0.305 -18.320  0.00  0.00     0.217 HD
ENDBRANCH  10  24
TORSDOF 5
ENDMDL
