MODEL 1
REMARK VINA RESULT:    -8.671      0.000      0.000
REMARK INTER + INTRA:          -8.686
REMARK INTER:                  -9.828
REMARK INTRA:                   1.142
REMARK UNBOUND:                 0.999
REMARK  3 active torsions:
REMARK  status: ('A' for Active; 'I' for Inactive)
REMARK    1  A    between atoms: O_2  and  C_10 
REMARK    2  A    between atoms: O_4  and  C_13 
REMARK    3  A    between atoms: C_7  and  C_9 
ROOT
ATOM      1  O   UNL d   1      14.896  -9.231   0.349  0.00  0.00    -0.309 OA
ATOM      2  O   UNL d   1      17.650  -8.949  -0.808  0.00  0.00    -0.287 OA
ATOM      3  C   UNL d   1      16.595  -8.971   0.566  0.00  0.00     0.081 A 
ATOM      4  C   UNL d   1      15.677  -9.065   0.951  0.00  0.00     0.095 A 
ATOM      5  C   UNL d   1      15.033  -9.303  -0.639  0.00  0.00     0.090 A 
ATOM      6  C   UNL d   1      16.732  -9.043  -0.422  0.00  0.00     0.190 A 
ATOM      7  C   UNL d   1      17.417  -8.799   1.181  0.00  0.00     0.085 A 
ATOM      8  C   UNL d   1      15.951  -9.209  -1.025  0.00  0.00     0.094 A 
ATOM      9  C   UNL d   1      15.518  -8.993   1.979  0.00  0.00     0.075 A 
ATOM     10  C   UNL d   1      16.327  -8.821   2.612  0.00  0.00     0.071 A 
ATOM     11  C   UNL d   1      17.282  -8.723   2.211  0.00  0.00     0.074 A 
ENDROOT
BRANCH   5  12
ATOM     12  C   UNL d   1      14.252  -9.468  -1.241  0.00  0.00    -0.002 A 
ATOM     13  C   UNL d   1      13.648 -10.247  -1.074  0.00  0.00     0.014 A 
ATOM     14  C   UNL d   1      12.867 -10.413  -1.676  0.00  0.00     0.001 A 
ATOM     15  C   UNL d   1      12.691  -9.799  -2.446  0.00  0.00     0.000 A 
ATOM     16  C   UNL d   1      13.295  -9.020  -2.614  0.00  0.00     0.001 A 
ATOM     17  C   UNL d   1      14.076  -8.855  -2.011  0.00  0.00     0.014 A 
ENDBRANCH   5  12
BRANCH   7  18
ATOM     18  O   UNL d   1      18.331  -8.706   0.784  0.00  0.00    -0.360 OA
ATOM     19  H   UNL d   1      18.752  -9.153   0.870  0.00  0.00     0.217 HD
ENDBRANCH   7  18
BRANCH  10  20
ATOM     20  O   UNL d   1      16.185  -8.750   3.600  0.00  0.00    -0.361 OA
ATOM     21  H   UNL d   1      16.412  -8.264   3.911  0.00  0.00     0.217 HD
ENDBRANCH  10  20
TORSDOF 3
ENDMDL
MODEL 2
REMARK VINA RESULT:    -8.558      2.433      3.746
REMARK INTER + INTRA:          -8.559
REMARK INTER:                  -9.600
REMARK INTRA:                   1.041
REMARK UNBOUND:                 0.999
REMARK  3 active torsions:
REMARK  status: ('A' for Active; 'I' for Inactive)
REMARK    1  A    between atoms: O_2  and  C_10 
REMARK    2  A    between atoms: O_4  and  C_13 
REMARK    3  A    between atoms: C_7  and  C_9 
ROOT
ATOM      1  O   UNL d   1      15.679  -7.655  -1.059  0.00  0.00    -0.309 OA
ATOM      2  O   UNL d   1      18.463  -8.549  -1.731  0.00  0.00    -0.287 OA
ATOM      3  C   UNL d   1      17.199  -7.370  -1.839  0.00  0.00     0.081 A 
ATOM      4  C   UNL d   1      16.271  -7.072  -1.615  0.00  0.00     0.095 A 
ATOM      5  C   UNL d   1      16.016  -8.536  -0.726  0.00  0.00     0.090 A 
ATOM      6  C   UNL d   1      17.535  -8.251  -1.507  0.00  0.00     0.190 A 
ATOM      7  C   UNL d   1      17.827  -6.773  -2.418  0.00  0.00     0.085 A 
ATOM      8  C   UNL d   1      16.944  -8.834  -0.950  0.00  0.00     0.094 A 
ATOM      9  C   UNL d   1      15.907  -6.157  -1.954  0.00  0.00     0.075 A 
ATOM     10  C   UNL d   1      16.517  -5.544  -2.534  0.00  0.00     0.071 A 
ATOM     11  C   UNL d   1      17.483  -5.854  -2.768  0.00  0.00     0.074 A 
ENDROOT
BRANCH   5  12
ATOM     12  C   UNL d   1      15.424  -9.120  -0.170  0.00  0.00    -0.002 A 
ATOM     13  C   UNL d   1      15.611  -9.237   0.805  0.00  0.00     0.014 A 
ATOM     14  C   UNL d   1      15.019  -9.820   1.362  0.00  0.00     0.001 A 
ATOM     15  C   UNL d   1      14.240 -10.286   0.943  0.00  0.00     0.000 A 
ATOM     16  C   UNL d   1      14.053 -10.169  -0.033  0.00  0.00     0.001 A 
ATOM     17  C   UNL d   1      14.645  -9.586  -0.589  0.00  0.00     0.014 A 
ENDBRANCH   5  12
BRANCH   7  18
ATOM     18  O   UNL d   1      18.753  -7.081  -2.635  0.00  0.00    -0.360 OA
ATOM     19  H   UNL d   1      18.886  -7.283  -3.206  0.00  0.00     0.217 HD
ENDBRANCH   7  18
BRANCH  10  20
ATOM     20  O   UNL d   1      16.177  -4.663  -2.865  0.00  0.00    -0.361 OA
ATOM     21  H   UNL d   1      15.569  -4.544  -2.859  0.00  0.00     0.217 HD
ENDBRANCH  10  20
TORSDOF 3
ENDMDL
MODEL 3
REMARK VINA RESULT:    -8.477     25.009     26.030
REMARK INTER + INTRA:          -8.469
REMARK INTER:                  -9.621
REMARK INTRA:                   1.153
REMARK UNBOUND:                 0.999
REMARK  3 active torsions:
REMARK  status: ('A' for Active; 'I' for Inactive)
REMARK    1  A    between atoms: O_2  and  C_10 
REMARK    2  A    between atoms: O_4  and  C_13 
REMARK    3  A    between atoms: C_7  and  C_9 
ROOT
ATOM      1  O   UNL d   1       7.778  11.536  14.171  0.00  0.00    -0.309 OA
ATOM      2  O   UNL d   1      10.575  11.547  13.087  0.00  0.00    -0.287 OA
ATOM      3  C   UNL d   1       9.409  10.955  14.223  0.00  0.00     0.081 A 
ATOM      4  C   UNL d   1       8.477  10.952  14.584  0.00  0.00     0.095 A 
ATOM      5  C   UNL d   1       8.012  12.124  13.396  0.00  0.00     0.090 A 
ATOM      6  C   UNL d   1       9.643  11.543  13.448  0.00  0.00     0.190 A 
ATOM      7  C   UNL d   1      10.147  10.352  14.642  0.00  0.00     0.085 A 
ATOM      8  C   UNL d   1       8.944  12.128  13.035  0.00  0.00     0.094 A 
ATOM      9  C   UNL d   1       8.218  10.345  15.390  0.00  0.00     0.075 A 
ATOM     10  C   UNL d   1       8.940   9.733  15.825  0.00  0.00     0.071 A 
ATOM     11  C   UNL d   1       9.911   9.737  15.449  0.00  0.00     0.074 A 
ENDROOT
BRANCH   5  12
ATOM     12  C   UNL d   1       7.313  12.708  12.983  0.00  0.00    -0.002 A 
ATOM     13  C   UNL d   1       7.487  13.685  12.862  0.00  0.00     0.014 A 
ATOM     14  C   UNL d   1       6.788  14.270  12.449  0.00  0.00     0.001 A 
ATOM     15  C   UNL d   1       5.916  13.877  12.157  0.00  0.00     0.000 A 
ATOM     16  C   UNL d   1       5.743  12.899  12.279  0.00  0.00     0.001 A 
ATOM     17  C   UNL d   1       6.441  12.315  12.692  0.00  0.00     0.014 A 
ENDBRANCH   5  12
BRANCH   7  18
ATOM     18  O   UNL d   1      11.076  10.364  14.273  0.00  0.00    -0.360 OA
ATOM     19  H   UNL d   1      11.313  10.890  14.048  0.00  0.00     0.217 HD
ENDBRANCH   7  18
BRANCH  10  20
ATOM     20  O   UNL d   1       8.702   9.147  16.600  0.00  0.00    -0.361 OA
ATOM     21  H   UNL d   1       8.190   8.798  16.578  0.00  0.00     0.217 HD
ENDBRANCH  10  20
TORSDOF 3
ENDMDL
MODEL 4
REMARK VINA RESULT:    -8.412      2.045      3.706
REMARK INTER + INTRA:          -8.397
REMARK INTER:                  -9.428
REMARK INTRA:                   1.031
REMARK UNBOUND:                 0.999
REMARK  3 active torsions:
REMARK  status: ('A' for Active; 'I' for Inactive)
REMARK    1  A    between atoms: O_2  and  C_10 
REMARK    2  A    between atoms: O_4  and  C_13 
REMARK    3  A    between atoms: C_7  and  C_9 
ROOT
ATOM      1  O   UNL d   1      15.216  -8.581  -1.155  0.00  0.00    -0.309 OA
ATOM      2  O   UNL d   1      16.370  -9.098   1.565  0.00  0.00    -0.287 OA
ATOM      3  C   UNL d   1      15.145  -9.388   0.376  0.00  0.00     0.081 A 
ATOM      4  C   UNL d   1      14.761  -9.216  -0.531  0.00  0.00     0.095 A 
ATOM      5  C   UNL d   1      16.056  -8.118  -0.873  0.00  0.00     0.090 A 
ATOM      6  C   UNL d   1      15.985  -8.925   0.658  0.00  0.00     0.190 A 
ATOM      7  C   UNL d   1      14.682 -10.047   1.036  0.00  0.00     0.085 A 
ATOM      8  C   UNL d   1      16.441  -8.290   0.034  0.00  0.00     0.094 A 
ATOM      9  C   UNL d   1      13.886  -9.691  -0.840  0.00  0.00     0.075 A 
ATOM     10  C   UNL d   1      13.406 -10.354  -0.196  0.00  0.00     0.071 A 
ATOM     11  C   UNL d   1      13.807 -10.533   0.748  0.00  0.00     0.074 A 
ENDROOT
BRANCH   5  12
ATOM     12  C   UNL d   1      16.511  -7.483  -1.497  0.00  0.00    -0.002 A 
ATOM     13  C   UNL d   1      16.116  -6.581  -1.668  0.00  0.00     0.014 A 
ATOM     14  C   UNL d   1      16.571  -5.946  -2.292  0.00  0.00     0.001 A 
ATOM     15  C   UNL d   1      17.422  -6.213  -2.745  0.00  0.00     0.000 A 
ATOM     16  C   UNL d   1      17.817  -7.115  -2.573  0.00  0.00     0.001 A 
ATOM     17  C   UNL d   1      17.362  -7.751  -1.949  0.00  0.00     0.014 A 
ENDBRANCH   5  12
BRANCH   7  18
ATOM     18  O   UNL d   1      15.076 -10.211   1.940  0.00  0.00    -0.360 OA
ATOM     19  H   UNL d   1      15.353  -9.749   2.246  0.00  0.00     0.217 HD
ENDBRANCH   7  18
BRANCH  10  20
ATOM     20  O   UNL d   1      12.566 -10.814  -0.482  0.00  0.00    -0.361 OA
ATOM     21  H   UNL d   1      12.187 -11.060  -0.057  0.00  0.00     0.217 HD
ENDBRANCH  10  20
TORSDOF 3
ENDMDL
MODEL 5
REMARK VINA RESULT:    -8.409      1.295      2.476
REMARK INTER + INTRA:          -8.392
REMARK INTER:                  -9.423
REMARK INTRA:                   1.031
REMARK UNBOUND:                 0.999
REMARK  3 active torsions:
REMARK  status: ('A' for Active; 'I' for Inactive)
REMARK    1  A    between atoms: O_2  and  C_10 
REMARK    2  A    between atoms: O_4  and  C_13 
REMARK    3  A    between atoms: C_7  and  C_9 
ROOT
ATOM      1  O   UNL d   1      15.469  -8.511  -0.995  0.00  0.00    -0.309 OA
ATOM      2  O   UNL d   1      13.504 -10.171   0.550  0.00  0.00    -0.287 OA
ATOM      3  C   UNL d   1      15.051  -9.401   0.432  0.00  0.00     0.081 A 
ATOM      4  C   UNL d   1      15.706  -8.848  -0.083  0.00  0.00     0.095 A 
ATOM      5  C   UNL d   1      14.577  -8.729  -1.391  0.00  0.00     0.090 A 
ATOM      6  C   UNL d   1      14.159  -9.618   0.035  0.00  0.00     0.190 A 
ATOM      7  C   UNL d   1      15.284  -9.758   1.382  0.00  0.00     0.085 A 
ATOM      8  C   UNL d   1      13.922  -9.282  -0.876  0.00  0.00     0.094 A 
ATOM      9  C   UNL d   1      16.639  -8.613   0.317  0.00  0.00     0.075 A 
ATOM     10  C   UNL d   1      16.893  -8.960   1.265  0.00  0.00     0.071 A 
ATOM     11  C   UNL d   1      16.211  -9.536   1.801  0.00  0.00     0.074 A 
ENDROOT
BRANCH   5  12
ATOM     12  C   UNL d   1      14.340  -8.392  -2.303  0.00  0.00    -0.002 A 
ATOM     13  C   UNL d   1      14.113  -7.428  -2.436  0.00  0.00     0.014 A 
ATOM     14  C   UNL d   1      13.876  -7.091  -3.348  0.00  0.00     0.001 A 
ATOM     15  C   UNL d   1      13.865  -7.720  -4.125  0.00  0.00     0.000 A 
ATOM     16  C   UNL d   1      14.092  -8.685  -3.992  0.00  0.00     0.001 A 
ATOM     17  C   UNL d   1      14.329  -9.021  -3.080  0.00  0.00     0.014 A 
ENDBRANCH   5  12
BRANCH   7  18
ATOM     18  O   UNL d   1      14.621 -10.310   1.888  0.00  0.00    -0.360 OA
ATOM     19  H   UNL d   1      14.751 -10.901   2.025  0.00  0.00     0.217 HD
ENDBRANCH   7  18
BRANCH  10  20
ATOM     20  O   UNL d   1      17.786  -8.740   1.658  0.00  0.00    -0.361 OA
ATOM     21  H   UNL d   1      18.082  -8.224   1.485  0.00  0.00     0.217 HD
ENDBRANCH  10  20
TORSDOF 3
ENDMDL
