MODEL 1
REMARK VINA RESULT:    -3.816      0.000      0.000
REMARK INTER + INTRA:           3.372
REMARK INTER:                  -5.117
REMARK INTRA:                   8.489
REMARK UNBOUND:                 8.526
REMARK  9 active torsions:
REMARK  status: ('A' for Active; 'I' for Inactive)
REMARK    1  A    between atoms: O_3  and  C_17 
REMARK    2  A    between atoms: O_4  and  C_18 
REMARK    3  A    between atoms: O_5  and  C_19 
REMARK    4  A    between atoms: O_7  and  C_32 
REMARK    5  A    between atoms: O_9  and  C_36 
REMARK    6  A    between atoms: O_10  and  C_40 
REMARK    7  A    between atoms: C_11  and  C_13 
REMARK    8  A    between atoms: C_15  and  C_20 
REMARK    9  A    between atoms: C_22  and  C_29 
ROOT
ATOM      1  O   UNL d   1      16.807  38.673  13.175  0.00  0.00    -0.308 OA
ATOM      2  O   UNL d   1      19.401  40.123  13.941  0.00  0.00    -0.287 OA
ATOM      3  C   UNL d   1      16.623  38.201  14.861  0.00  0.00     0.045 A 
ATOM      4  C   UNL d   1      17.151  38.678  14.158  0.00  0.00     0.107 A 
ATOM      5  C   UNL d   1      17.997  39.152  14.404  0.00  0.00     0.082 A 
ATOM      6  C   UNL d   1      16.941  38.197  15.809  0.00  0.00     0.082 A 
ATOM      7  C   UNL d   1      18.314  39.148  15.352  0.00  0.00     0.085 A 
ATOM      8  C   UNL d   1      17.786  38.671  16.055  0.00  0.00     0.075 A 
ATOM      9  C   UNL d   1      17.352  39.168  12.438  0.00  0.00     0.090 A 
ATOM     10  C   UNL d   1      18.557  39.653  13.684  0.00  0.00     0.190 A 
ATOM     11  C   UNL d   1      18.233  39.662  12.694  0.00  0.00     0.094 A 
ENDROOT
BRANCH   3  12
ATOM     12  C   UNL d   1      15.777  37.728  14.615  0.00  0.00     0.014 A 
ATOM     13  C   UNL d   1      14.910  38.225  14.607  0.00  0.00     0.029 A 
ATOM     14  C   UNL d   1      14.064  37.752  14.361  0.00  0.00    -0.001 A 
ATOM     15  C   UNL d   1      14.085  36.781  14.123  0.00  0.00     0.017 A 
ATOM     16  C   UNL d   1      14.953  36.283  14.132  0.00  0.00     0.038 A 
ATOM     17  C   UNL d   1      15.799  36.756  14.378  0.00  0.00     0.076 A 
BRANCH  14  18
ATOM     18  C   UNL d   1      13.197  38.249  14.352  0.00  0.00     0.090 A 
ATOM     19  O   UNL d   1      12.689  38.383  15.203  0.00  0.00    -0.309 OA
ATOM     20  C   UNL d   1      11.821  38.881  15.195  0.00  0.00     0.095 A 
ATOM     21  C   UNL d   1      11.462  39.245  14.336  0.00  0.00     0.081 A 
ATOM     22  C   UNL d   1      11.303  39.012  16.089  0.00  0.00     0.075 A 
ATOM     23  C   UNL d   1      11.970  39.111  13.485  0.00  0.00     0.190 A 
ATOM     24  C   UNL d   1      10.560  39.765  14.311  0.00  0.00     0.085 A 
ATOM     25  O   UNL d   1      11.611  39.475  12.625  0.00  0.00    -0.287 OA
ATOM     26  C   UNL d   1      12.837  38.613  13.493  0.00  0.00     0.094 A 
ATOM     27  C   UNL d   1      10.025  39.908  15.194  0.00  0.00     0.074 A 
ATOM     28  C   UNL d   1      10.399  39.529  16.089  0.00  0.00     0.071 A 
BRANCH  24  29
ATOM     29  O   UNL d   1      10.210  40.125  13.446  0.00  0.00    -0.360 OA
ATOM     30  H   UNL d   1       9.600  40.204  13.367  0.00  0.00     0.217 HD
ENDBRANCH  24  29
BRANCH  28  31
ATOM     31  O   UNL d   1       9.894  39.661  16.942  0.00  0.00    -0.361 OA
ATOM     32  H   UNL d   1      10.178  39.575  17.486  0.00  0.00     0.217 HD
ENDBRANCH  28  31
ENDBRANCH  14  18
BRANCH  17  33
ATOM     33  O   UNL d   1      16.666  36.259  14.386  0.00  0.00    -0.360 OA
ATOM     34  H   UNL d   1      17.190  36.552  14.538  0.00  0.00     0.217 HD
ENDBRANCH  17  33
ENDBRANCH   3  12
BRANCH   6  35
ATOM     35  O   UNL d   1      16.412  37.720  16.511  0.00  0.00    -0.360 OA
ATOM     36  H   UNL d   1      16.358  37.965  17.078  0.00  0.00     0.217 HD
ENDBRANCH   6  35
BRANCH   9  37
ATOM     37  C   UNL d   1      17.030  39.170  11.491  0.00  0.00    -0.002 A 
ATOM     38  C   UNL d   1      17.581  38.739  10.776  0.00  0.00     0.017 A 
ATOM     39  C   UNL d   1      17.261  38.739   9.829  0.00  0.00     0.037 A 
ATOM     40  C   UNL d   1      16.389  39.172   9.597  0.00  0.00     0.065 A 
ATOM     41  C   UNL d   1      15.839  39.603  10.312  0.00  0.00     0.037 A 
ATOM     42  C   UNL d   1      16.160  39.601  11.259  0.00  0.00     0.017 A 
BRANCH  40  43
ATOM     43  O   UNL d   1      16.068  39.173   8.650  0.00  0.00    -0.361 OA
ATOM     44  H   UNL d   1      15.482  39.014   8.520  0.00  0.00     0.217 HD
ENDBRANCH  40  43
ENDBRANCH   9  37
BRANCH   7  45
ATOM     45  O   UNL d   1      19.160  39.621  15.598  0.00  0.00    -0.360 OA
ATOM     46  H   UNL d   1      19.208  40.234  15.514  0.00  0.00     0.217 HD
ENDBRANCH   7  45
TORSDOF 9
ENDMDL
MODEL 2
REMARK VINA RESULT:    -3.537      7.786     12.489
REMARK INTER + INTRA:           3.748
REMARK INTER:                  -5.000
REMARK INTRA:                   8.748
REMARK UNBOUND:                 8.526
REMARK  9 active torsions:
REMARK  status: ('A' for Active; 'I' for Inactive)
REMARK    1  A    between atoms: O_3  and  C_17 
REMARK    2  A    between atoms: O_4  and  C_18 
REMARK    3  A    between atoms: O_5  and  C_19 
REMARK    4  A    between atoms: O_7  and  C_32 
REMARK    5  A    between atoms: O_9  and  C_36 
REMARK    6  A    between atoms: O_10  and  C_40 
REMARK    7  A    between atoms: C_11  and  C_13 
REMARK    8  A    between atoms: C_15  and  C_20 
REMARK    9  A    between atoms: C_22  and  C_29 
ROOT
ATOM      1  O   UNL d   1      23.533  38.800  15.679  0.00  0.00    -0.308 OA
ATOM      2  O   UNL d   1      21.347  40.111  13.969  0.00  0.00    -0.287 OA
ATOM      3  C   UNL d   1      24.144  38.020  14.224  0.00  0.00     0.045 A 
ATOM      4  C   UNL d   1      23.474  38.625  14.653  0.00  0.00     0.107 A 
ATOM      5  C   UNL d   1      22.761  39.055  14.099  0.00  0.00     0.082 A 
ATOM      6  C   UNL d   1      24.101  37.843  13.240  0.00  0.00     0.082 A 
ATOM      7  C   UNL d   1      22.717  38.878  13.116  0.00  0.00     0.085 A 
ATOM      8  C   UNL d   1      23.387  38.272  12.687  0.00  0.00     0.075 A 
ATOM      9  C   UNL d   1      22.838  39.429  16.133  0.00  0.00     0.090 A 
ATOM     10  C   UNL d   1      22.056  39.687  14.533  0.00  0.00     0.190 A 
ATOM     11  C   UNL d   1      22.095  39.876  15.556  0.00  0.00     0.094 A 
ENDROOT
BRANCH   3  12
ATOM     12  C   UNL d   1      24.858  37.591  14.778  0.00  0.00     0.014 A 
ATOM     13  C   UNL d   1      25.722  38.068  14.937  0.00  0.00     0.029 A 
ATOM     14  C   UNL d   1      26.436  37.639  15.491  0.00  0.00    -0.001 A 
ATOM     15  C   UNL d   1      26.285  36.733  15.885  0.00  0.00     0.017 A 
ATOM     16  C   UNL d   1      25.420  36.255  15.726  0.00  0.00     0.038 A 
ATOM     17  C   UNL d   1      24.707  36.684  15.173  0.00  0.00     0.076 A 
BRANCH  14  18
ATOM     18  C   UNL d   1      27.300  38.116  15.650  0.00  0.00     0.090 A 
ATOM     19  O   UNL d   1      27.847  38.431  14.874  0.00  0.00    -0.309 OA
ATOM     20  C   UNL d   1      28.711  38.908  15.033  0.00  0.00     0.095 A 
ATOM     21  C   UNL d   1      29.028  39.070  15.968  0.00  0.00     0.081 A 
ATOM     22  C   UNL d   1      29.270  39.231  14.215  0.00  0.00     0.075 A 
ATOM     23  C   UNL d   1      28.481  38.755  16.743  0.00  0.00     0.190 A 
ATOM     24  C   UNL d   1      29.927  39.566  16.149  0.00  0.00     0.085 A 
ATOM     25  O   UNL d   1      28.799  38.917  17.677  0.00  0.00    -0.287 OA
ATOM     26  C   UNL d   1      27.617  38.278  16.584  0.00  0.00     0.094 A 
ATOM     27  C   UNL d   1      30.502  39.897  15.346  0.00  0.00     0.074 A 
ATOM     28  C   UNL d   1      30.172  39.729  14.373  0.00  0.00     0.071 A 
BRANCH  24  29
ATOM     29  O   UNL d   1      30.234  39.722  17.087  0.00  0.00    -0.360 OA
ATOM     30  H   UNL d   1      30.316  40.301  17.295  0.00  0.00     0.217 HD
ENDBRANCH  24  29
BRANCH  28  31
ATOM     31  O   UNL d   1      30.716  40.043  13.595  0.00  0.00    -0.361 OA
ATOM     32  H   UNL d   1      31.334  39.987  13.606  0.00  0.00     0.217 HD
ENDBRANCH  28  31
ENDBRANCH  14  18
BRANCH  17  33
ATOM     33  O   UNL d   1      23.843  36.207  15.014  0.00  0.00    -0.360 OA
ATOM     34  H   UNL d   1      23.332  36.381  15.319  0.00  0.00     0.217 HD
ENDBRANCH  17  33
ENDBRANCH   3  12
BRANCH   6  35
ATOM     35  O   UNL d   1      24.771  37.238  12.811  0.00  0.00    -0.360 OA
ATOM     36  H   UNL d   1      24.679  36.624  12.812  0.00  0.00     0.217 HD
ENDBRANCH   6  35
BRANCH   9  37
ATOM     37  C   UNL d   1      22.885  39.603  17.117  0.00  0.00    -0.002 A 
ATOM     38  C   UNL d   1      23.774  39.706  17.564  0.00  0.00     0.017 A 
ATOM     39  C   UNL d   1      23.822  39.880  18.547  0.00  0.00     0.037 A 
ATOM     40  C   UNL d   1      22.981  39.951  19.084  0.00  0.00     0.065 A 
ATOM     41  C   UNL d   1      22.092  39.848  18.637  0.00  0.00     0.037 A 
ATOM     42  C   UNL d   1      22.045  39.674  17.653  0.00  0.00     0.017 A 
BRANCH  40  43
ATOM     43  O   UNL d   1      23.029  40.125  20.068  0.00  0.00    -0.361 OA
ATOM     44  H   UNL d   1      22.847  40.673  20.295  0.00  0.00     0.217 HD
ENDBRANCH  40  43
ENDBRANCH   9  37
BRANCH   7  45
ATOM     45  O   UNL d   1      22.004  39.307  12.562  0.00  0.00    -0.360 OA
ATOM     46  H   UNL d   1      22.016  39.252  11.945  0.00  0.00     0.217 HD
ENDBRANCH   7  45
TORSDOF 9
ENDMDL
MODEL 3
REMARK VINA RESULT:    -3.328      2.909      4.346
REMARK INTER + INTRA:           4.030
REMARK INTER:                  -4.549
REMARK INTRA:                   8.579
REMARK UNBOUND:                 8.526
REMARK  9 active torsions:
REMARK  status: ('A' for Active; 'I' for Inactive)
REMARK    1  A    between atoms: O_3  and  C_17 
REMARK    2  A    between atoms: O_4  and  C_18 
REMARK    3  A    between atoms: O_5  and  C_19 
REMARK    4  A    between atoms: O_7  and  C_32 
REMARK    5  A    between atoms: O_9  and  C_36 
REMARK    6  A    between atoms: O_10  and  C_40 
REMARK    7  A    between atoms: C_11  and  C_13 
REMARK    8  A    between atoms: C_15  and  C_20 
REMARK    9  A    between atoms: C_22  and  C_29 
ROOT
ATOM      1  O   UNL d   1      17.192  38.902  13.475  0.00  0.00    -0.308 OA
ATOM      2  O   UNL d   1      19.808  39.787  12.136  0.00  0.00    -0.287 OA
ATOM      3  C   UNL d   1      18.066  38.769  14.998  0.00  0.00     0.045 A 
ATOM      4  C   UNL d   1      18.076  38.984  14.021  0.00  0.00     0.107 A 
ATOM      5  C   UNL d   1      18.926  39.272  13.581  0.00  0.00     0.082 A 
ATOM      6  C   UNL d   1      18.907  38.843  15.534  0.00  0.00     0.082 A 
ATOM      7  C   UNL d   1      19.767  39.346  14.118  0.00  0.00     0.085 A 
ATOM      8  C   UNL d   1      19.757  39.132  15.095  0.00  0.00     0.075 A 
ATOM      9  C   UNL d   1      17.195  39.124  12.458  0.00  0.00     0.090 A 
ATOM     10  C   UNL d   1      18.951  39.499  12.565  0.00  0.00     0.190 A 
ATOM     11  C   UNL d   1      18.081  39.425  11.999  0.00  0.00     0.094 A 
ENDROOT
BRANCH   3  12
ATOM     12  C   UNL d   1      17.216  38.480  15.438  0.00  0.00     0.014 A 
ATOM     13  C   UNL d   1      16.961  37.513  15.447  0.00  0.00     0.029 A 
ATOM     14  C   UNL d   1      16.111  37.224  15.887  0.00  0.00    -0.001 A 
ATOM     15  C   UNL d   1      15.515  37.902  16.318  0.00  0.00     0.017 A 
ATOM     16  C   UNL d   1      15.770  38.869  16.308  0.00  0.00     0.038 A 
ATOM     17  C   UNL d   1      16.620  39.158  15.868  0.00  0.00     0.076 A 
BRANCH  14  18
ATOM     18  C   UNL d   1      15.856  36.257  15.896  0.00  0.00     0.090 A 
ATOM     19  O   UNL d   1      16.097  35.684  16.679  0.00  0.00    -0.309 OA
ATOM     20  C   UNL d   1      15.842  34.717  16.689  0.00  0.00     0.095 A 
ATOM     21  C   UNL d   1      15.346  34.323  15.915  0.00  0.00     0.081 A 
ATOM     22  C   UNL d   1      16.101  34.132  17.512  0.00  0.00     0.075 A 
ATOM     23  C   UNL d   1      15.105  34.897  15.132  0.00  0.00     0.190 A 
ATOM     24  C   UNL d   1      15.074  33.318  15.910  0.00  0.00     0.085 A 
ATOM     25  O   UNL d   1      14.609  34.503  14.358  0.00  0.00    -0.287 OA
ATOM     26  C   UNL d   1      15.360  35.864  15.122  0.00  0.00     0.094 A 
ATOM     27  C   UNL d   1      15.322  32.714  16.722  0.00  0.00     0.074 A 
ATOM     28  C   UNL d   1      15.839  33.124  17.529  0.00  0.00     0.071 A 
BRANCH  24  29
ATOM     29  O   UNL d   1      14.578  32.935  15.131  0.00  0.00    -0.360 OA
ATOM     30  H   UNL d   1      14.821  32.463  14.810  0.00  0.00     0.217 HD
ENDBRANCH  24  29
BRANCH  28  31
ATOM     31  O   UNL d   1      16.082  32.554  18.313  0.00  0.00    -0.361 OA
ATOM     32  H   UNL d   1      16.678  32.459  18.454  0.00  0.00     0.217 HD
ENDBRANCH  28  31
ENDBRANCH  14  18
BRANCH  17  33
ATOM     33  O   UNL d   1      16.875  40.125  15.859  0.00  0.00    -0.360 OA
ATOM     34  H   UNL d   1      16.888  40.447  16.389  0.00  0.00     0.217 HD
ENDBRANCH  17  33
ENDBRANCH   3  12
BRANCH   6  35
ATOM     35  O   UNL d   1      18.897  38.628  16.511  0.00  0.00    -0.360 OA
ATOM     36  H   UNL d   1      19.291  38.914  16.895  0.00  0.00     0.217 HD
ENDBRANCH   6  35
BRANCH   9  37
ATOM     37  C   UNL d   1      16.352  39.048  11.925  0.00  0.00    -0.002 A 
ATOM     38  C   UNL d   1      16.125  39.749  11.248  0.00  0.00     0.017 A 
ATOM     39  C   UNL d   1      15.282  39.674  10.714  0.00  0.00     0.037 A 
ATOM     40  C   UNL d   1      14.667  38.899  10.858  0.00  0.00     0.065 A 
ATOM     41  C   UNL d   1      14.894  38.199  11.535  0.00  0.00     0.037 A 
ATOM     42  C   UNL d   1      15.737  38.274  12.068  0.00  0.00     0.017 A 
BRANCH  40  43
ATOM     43  O   UNL d   1      13.824  38.824  10.325  0.00  0.00    -0.361 OA
ATOM     44  H   UNL d   1      13.777  39.111   9.776  0.00  0.00     0.217 HD
ENDBRANCH  40  43
ENDBRANCH   9  37
BRANCH   7  45
ATOM     45  O   UNL d   1      20.617  39.635  13.678  0.00  0.00    -0.360 OA
ATOM     46  H   UNL d   1      21.066  39.900  14.014  0.00  0.00     0.217 HD
ENDBRANCH   7  45
TORSDOF 9
ENDMDL
MODEL 4
REMARK VINA RESULT:    -3.288      3.020      4.625
REMARK INTER + INTRA:           4.085
REMARK INTER:                  -4.390
REMARK INTRA:                   8.474
REMARK UNBOUND:                 8.526
REMARK  9 active torsions:
REMARK  status: ('A' for Active; 'I' for Inactive)
REMARK    1  A    between atoms: O_3  and  C_17 
REMARK    2  A    between atoms: O_4  and  C_18 
REMARK    3  A    between atoms: O_5  and  C_19 
REMARK    4  A    between atoms: O_7  and  C_32 
REMARK    5  A    between atoms: O_9  and  C_36 
REMARK    6  A    between atoms: O_10  and  C_40 
REMARK    7  A    between atoms: C_11  and  C_13 
REMARK    8  A    between atoms: C_15  and  C_20 
REMARK    9  A    between atoms: C_22  and  C_29 
ROOT
ATOM      1  O   UNL d   1      15.119  38.854  12.062  0.00  0.00    -0.308 OA
ATOM      2  O   UNL d   1      17.275  40.123  13.839  0.00  0.00    -0.287 OA
ATOM      3  C   UNL d   1      14.303  38.300  13.521  0.00  0.00     0.045 A 
ATOM      4  C   UNL d   1      15.068  38.787  13.101  0.00  0.00     0.107 A 
ATOM      5  C   UNL d   1      15.773  39.202  13.676  0.00  0.00     0.082 A 
ATOM      6  C   UNL d   1      14.241  38.228  14.516  0.00  0.00     0.082 A 
ATOM      7  C   UNL d   1      15.712  39.130  14.672  0.00  0.00     0.085 A 
ATOM      8  C   UNL d   1      14.946  38.644  15.092  0.00  0.00     0.075 A 
ATOM      9  C   UNL d   1      15.913  39.359  11.618  0.00  0.00     0.090 A 
ATOM     10  C   UNL d   1      16.576  39.712  13.253  0.00  0.00     0.190 A 
ATOM     11  C   UNL d   1      16.648  39.792  12.218  0.00  0.00     0.094 A 
ENDROOT
BRANCH   3  12
ATOM     12  C   UNL d   1      13.598  37.885  12.945  0.00  0.00     0.014 A 
ATOM     13  C   UNL d   1      13.720  36.956  12.597  0.00  0.00     0.029 A 
ATOM     14  C   UNL d   1      13.015  36.541  12.022  0.00  0.00    -0.001 A 
ATOM     15  C   UNL d   1      12.189  37.055  11.794  0.00  0.00     0.017 A 
ATOM     16  C   UNL d   1      12.067  37.985  12.142  0.00  0.00     0.038 A 
ATOM     17  C   UNL d   1      12.771  38.400  12.717  0.00  0.00     0.076 A 
BRANCH  14  18
ATOM     18  C   UNL d   1      13.138  35.611  11.674  0.00  0.00     0.090 A 
ATOM     19  O   UNL d   1      12.746  34.836  12.170  0.00  0.00    -0.309 OA
ATOM     20  C   UNL d   1      12.868  33.907  11.823  0.00  0.00     0.095 A 
ATOM     21  C   UNL d   1      13.382  33.752  10.979  0.00  0.00     0.081 A 
ATOM     22  C   UNL d   1      12.453  33.109  12.350  0.00  0.00     0.075 A 
ATOM     23  C   UNL d   1      13.774  34.526  10.483  0.00  0.00     0.190 A 
ATOM     24  C   UNL d   1      13.517  32.789  10.604  0.00  0.00     0.085 A 
ATOM     25  O   UNL d   1      14.288  34.372   9.639  0.00  0.00    -0.287 OA
ATOM     26  C   UNL d   1      13.652  35.456  10.830  0.00  0.00     0.094 A 
ATOM     27  C   UNL d   1      13.111  31.977  11.116  0.00  0.00     0.074 A 
ATOM     28  C   UNL d   1      12.576  32.138  11.995  0.00  0.00     0.071 A 
BRANCH  24  29
ATOM     29  O   UNL d   1      14.033  32.646   9.760  0.00  0.00    -0.360 OA
ATOM     30  H   UNL d   1      14.598  32.893   9.696  0.00  0.00     0.217 HD
ENDBRANCH  24  29
BRANCH  28  31
ATOM     31  O   UNL d   1      12.182  31.366  12.493  0.00  0.00    -0.361 OA
ATOM     32  H   UNL d   1      11.575  31.247  12.452  0.00  0.00     0.217 HD
ENDBRANCH  28  31
ENDBRANCH  14  18
BRANCH  17  33
ATOM     33  O   UNL d   1      12.649  39.329  13.065  0.00  0.00    -0.360 OA
ATOM     34  H   UNL d   1      12.818  39.468  13.645  0.00  0.00     0.217 HD
ENDBRANCH  17  33
ENDBRANCH   3  12
BRANCH   6  35
ATOM     35  O   UNL d   1      13.475  37.742  14.936  0.00  0.00    -0.360 OA
ATOM     36  H   UNL d   1      13.460  37.659  15.550  0.00  0.00     0.217 HD
ENDBRANCH   6  35
BRANCH   9  37
ATOM     37  C   UNL d   1      15.971  39.429  10.622  0.00  0.00    -0.002 A 
ATOM     38  C   UNL d   1      16.686  38.934  10.127  0.00  0.00     0.017 A 
ATOM     39  C   UNL d   1      16.744  39.003   9.131  0.00  0.00     0.037 A 
ATOM     40  C   UNL d   1      16.087  39.567   8.630  0.00  0.00     0.065 A 
ATOM     41  C   UNL d   1      15.373  40.061   9.125  0.00  0.00     0.037 A 
ATOM     42  C   UNL d   1      15.315  39.992  10.121  0.00  0.00     0.017 A 
BRANCH  40  43
ATOM     43  O   UNL d   1      16.145  39.636   7.634  0.00  0.00    -0.361 OA
ATOM     44  H   UNL d   1      16.286  40.179   7.368  0.00  0.00     0.217 HD
ENDBRANCH  40  43
ENDBRANCH   9  37
BRANCH   7  45
ATOM     45  O   UNL d   1      16.416  39.545  15.248  0.00  0.00    -0.360 OA
ATOM     46  H   UNL d   1      17.015  39.421  15.143  0.00  0.00     0.217 HD
ENDBRANCH   7  45
TORSDOF 9
ENDMDL
MODEL 5
REMARK VINA RESULT:    -3.205      5.354      9.925
REMARK INTER + INTRA:           4.197
REMARK INTER:                  -4.311
REMARK INTRA:                   8.507
REMARK UNBOUND:                 8.526
REMARK  9 active torsions:
REMARK  status: ('A' for Active; 'I' for Inactive)
REMARK    1  A    between atoms: O_3  and  C_17 
REMARK    2  A    between atoms: O_4  and  C_18 
REMARK    3  A    between atoms: O_5  and  C_19 
REMARK    4  A    between atoms: O_7  and  C_32 
REMARK    5  A    between atoms: O_9  and  C_36 
REMARK    6  A    between atoms: O_10  and  C_40 
REMARK    7  A    between atoms: C_11  and  C_13 
REMARK    8  A    between atoms: C_15  and  C_20 
REMARK    9  A    between atoms: C_22  and  C_29 
ROOT
ATOM      1  O   UNL d   1      20.584  38.289  16.844  0.00  0.00    -0.308 OA
ATOM      2  O   UNL d   1      18.342  36.350  17.639  0.00  0.00    -0.287 OA
ATOM      3  C   UNL d   1      21.393  37.909  18.360  0.00  0.00     0.045 A 
ATOM      4  C   UNL d   1      20.616  37.770  17.746  0.00  0.00     0.107 A 
ATOM      5  C   UNL d   1      19.884  37.139  18.002  0.00  0.00     0.082 A 
ATOM      6  C   UNL d   1      21.438  37.417  19.230  0.00  0.00     0.082 A 
ATOM      7  C   UNL d   1      19.928  36.647  18.872  0.00  0.00     0.085 A 
ATOM      8  C   UNL d   1      20.705  36.786  19.486  0.00  0.00     0.075 A 
ATOM      9  C   UNL d   1      19.778  38.149  16.199  0.00  0.00     0.090 A 
ATOM     10  C   UNL d   1      19.069  36.983  17.373  0.00  0.00     0.190 A 
ATOM     11  C   UNL d   1      19.015  37.491  16.465  0.00  0.00     0.094 A 
ENDROOT
BRANCH   3  12
ATOM     12  C   UNL d   1      22.126  38.540  18.104  0.00  0.00     0.014 A 
ATOM     13  C   UNL d   1      22.893  38.218  17.550  0.00  0.00     0.029 A 
ATOM     14  C   UNL d   1      23.625  38.849  17.294  0.00  0.00    -0.001 A 
ATOM     15  C   UNL d   1      23.590  39.802  17.593  0.00  0.00     0.017 A 
ATOM     16  C   UNL d   1      22.823  40.125  18.148  0.00  0.00     0.038 A 
ATOM     17  C   UNL d   1      22.091  39.494  18.403  0.00  0.00     0.076 A 
BRANCH  14  18
ATOM     18  C   UNL d   1      24.392  38.526  16.740  0.00  0.00     0.090 A 
ATOM     19  O   UNL d   1      24.259  38.329  15.768  0.00  0.00    -0.309 OA
ATOM     20  C   UNL d   1      25.026  38.006  15.214  0.00  0.00     0.095 A 
ATOM     21  C   UNL d   1      25.926  37.881  15.630  0.00  0.00     0.081 A 
ATOM     22  C   UNL d   1      24.871  37.804  14.203  0.00  0.00     0.075 A 
ATOM     23  C   UNL d   1      26.060  38.078  16.602  0.00  0.00     0.190 A 
ATOM     24  C   UNL d   1      26.735  37.546  15.065  0.00  0.00     0.085 A 
ATOM     25  O   UNL d   1      26.960  37.953  17.018  0.00  0.00    -0.287 OA
ATOM     26  C   UNL d   1      25.292  38.401  17.156  0.00  0.00     0.094 A 
ATOM     27  C   UNL d   1      26.603  37.338  14.053  0.00  0.00     0.074 A 
ATOM     28  C   UNL d   1      25.665  37.468  13.619  0.00  0.00     0.071 A 
BRANCH  24  29
ATOM     29  O   UNL d   1      27.631  37.424  15.492  0.00  0.00    -0.360 OA
ATOM     30  H   UNL d   1      27.931  37.913  15.727  0.00  0.00     0.217 HD
ENDBRANCH  24  29
BRANCH  28  31
ATOM     31  O   UNL d   1      25.528  37.272  12.648  0.00  0.00    -0.361 OA
ATOM     32  H   UNL d   1      25.211  36.767  12.476  0.00  0.00     0.217 HD
ENDBRANCH  28  31
ENDBRANCH  14  18
BRANCH  17  33
ATOM     33  O   UNL d   1      21.324  39.816  18.958  0.00  0.00    -0.360 OA
ATOM     34  H   UNL d   1      20.971  39.410  19.265  0.00  0.00     0.217 HD
ENDBRANCH  17  33
ENDBRANCH   3  12
BRANCH   6  35
ATOM     35  O   UNL d   1      22.215  37.557  19.844  0.00  0.00    -0.360 OA
ATOM     36  H   UNL d   1      22.714  37.867  19.647  0.00  0.00     0.217 HD
ENDBRANCH   6  35
BRANCH   9  37
ATOM     37  C   UNL d   1      19.738  38.642  15.330  0.00  0.00    -0.002 A 
ATOM     38  C   UNL d   1      19.038  39.342  15.185  0.00  0.00     0.017 A 
ATOM     39  C   UNL d   1      18.996  39.836  14.317  0.00  0.00     0.037 A 
ATOM     40  C   UNL d   1      19.655  39.630  13.593  0.00  0.00     0.065 A 
ATOM     41  C   UNL d   1      20.355  38.931  13.738  0.00  0.00     0.037 A 
ATOM     42  C   UNL d   1      20.396  38.437  14.607  0.00  0.00     0.017 A 
BRANCH  40  43
ATOM     43  O   UNL d   1      19.614  40.124  12.724  0.00  0.00    -0.361 OA
ATOM     44  H   UNL d   1      19.072  40.189  12.429  0.00  0.00     0.217 HD
ENDBRANCH  40  43
ENDBRANCH   9  37
BRANCH   7  45
ATOM     45  O   UNL d   1      19.196  36.016  19.127  0.00  0.00    -0.360 OA
ATOM     46  H   UNL d   1      18.731  35.904  18.732  0.00  0.00     0.217 HD
ENDBRANCH   7  45
TORSDOF 9
ENDMDL
