MODEL 1
REMARK VINA RESULT:    -5.481      0.000      0.000
REMARK INTER + INTRA:          -5.994
REMARK INTER:                  -6.983
REMARK INTRA:                   0.989
REMARK UNBOUND:                 0.929
REMARK  6 active torsions:
REMARK  status: ('A' for Active; 'I' for Inactive)
REMARK    1  A    between atoms: O_1  and  C_8 
REMARK    2  A    between atoms: O_2  and  C_9 
REMARK    3  A    between atoms: O_3  and  C_13 
REMARK    4  A    between atoms: C_5  and  C_11 
REMARK    5  A    between atoms: C_11  and  C_12 
REMARK    6  A    between atoms: C_12  and  C_13 
ROOT
ATOM      1  C   UNL d   1       4.603   8.080  36.073  0.00  0.00    -0.033 A 
ATOM      2  C   UNL d   1       5.570   8.054  35.822  0.00  0.00     0.050 A 
ATOM      3  C   UNL d   1       4.245   8.845  36.608  0.00  0.00     0.014 A 
ATOM      4  C   UNL d   1       6.180   8.794  36.106  0.00  0.00     0.099 A 
ATOM      5  C   UNL d   1       5.822   9.560  36.641  0.00  0.00     0.098 A 
ATOM      6  C   UNL d   1       4.854   9.585  36.892  0.00  0.00     0.040 A 
ENDROOT
BRANCH   1   7
ATOM      7  C   UNL d   1       3.993   7.340  35.789  0.00  0.00     0.018 C 
BRANCH   7   8
ATOM      8  C   UNL d   1       3.706   6.647  36.451  0.00  0.00     0.082 C 
BRANCH   8   9
ATOM      9  C   UNL d   1       3.304   5.788  36.133  0.00  0.00     0.165 C 
ATOM     10  O   UNL d   1       3.869   4.966  36.067  0.00  0.00    -0.647 OA
BRANCH   9  11
ATOM     11  O   UNL d   1       2.337   5.752  35.882  0.00  0.00    -0.773 OA
ATOM     12  H   UNL d   1       2.031   5.213  35.904  0.00  0.00     0.167 HD
ENDBRANCH   9  11
ENDBRANCH   8   9
ENDBRANCH   7   8
ENDBRANCH   1   7
BRANCH   4  13
ATOM     13  O   UNL d   1       7.148   8.769  35.855  0.00  0.00    -0.358 OA
ATOM     14  H   UNL d   1       7.506   8.302  36.050  0.00  0.00     0.217 HD
ENDBRANCH   4  13
BRANCH   5  15
ATOM     15  O   UNL d   1       6.432  10.300  36.924  0.00  0.00    -0.358 OA
ATOM     16  H   UNL d   1       6.266  10.890  36.833  0.00  0.00     0.217 HD
ENDBRANCH   5  15
TORSDOF 6
ENDMDL
MODEL 2
REMARK VINA RESULT:    -5.223      1.167      4.131
REMARK INTER + INTRA:          -5.668
REMARK INTER:                  -6.612
REMARK INTRA:                   0.944
REMARK UNBOUND:                 0.929
REMARK  6 active torsions:
REMARK  status: ('A' for Active; 'I' for Inactive)
REMARK    1  A    between atoms: O_1  and  C_8 
REMARK    2  A    between atoms: O_2  and  C_9 
REMARK    3  A    between atoms: O_3  and  C_13 
REMARK    4  A    between atoms: C_5  and  C_11 
REMARK    5  A    between atoms: C_11  and  C_12 
REMARK    6  A    between atoms: C_12  and  C_13 
ROOT
ATOM      1  C   UNL d   1       4.018   7.676  35.627  0.00  0.00    -0.033 A 
ATOM      2  C   UNL d   1       3.422   6.980  36.028  0.00  0.00     0.050 A 
ATOM      3  C   UNL d   1       4.507   7.485  34.776  0.00  0.00     0.014 A 
ATOM      4  C   UNL d   1       3.316   6.093  35.578  0.00  0.00     0.099 A 
ATOM      5  C   UNL d   1       3.805   5.902  34.727  0.00  0.00     0.098 A 
ATOM      6  C   UNL d   1       4.400   6.598  34.326  0.00  0.00     0.040 A 
ENDROOT
BRANCH   1   7
ATOM      7  C   UNL d   1       4.124   8.562  36.077  0.00  0.00     0.018 C 
BRANCH   7   8
ATOM      8  C   UNL d   1       4.911   8.730  36.672  0.00  0.00     0.082 C 
BRANCH   8   9
ATOM      9  C   UNL d   1       4.997   9.602  37.152  0.00  0.00     0.165 C 
ATOM     10  O   UNL d   1       4.795   9.657  38.130  0.00  0.00    -0.647 OA
BRANCH   9  11
ATOM     11  O   UNL d   1       5.286  10.420  36.655  0.00  0.00    -0.773 OA
ATOM     12  H   UNL d   1       5.775  10.747  36.852  0.00  0.00     0.167 HD
ENDBRANCH   9  11
ENDBRANCH   8   9
ENDBRANCH   7   8
ENDBRANCH   1   7
BRANCH   4  13
ATOM     13  O   UNL d   1       2.720   5.397  35.979  0.00  0.00    -0.358 OA
ATOM     14  H   UNL d   1       2.873   5.132  36.518  0.00  0.00     0.217 HD
ENDBRANCH   4  13
BRANCH   5  15
ATOM     15  O   UNL d   1       3.698   5.016  34.277  0.00  0.00    -0.358 OA
ATOM     16  H   UNL d   1       3.891   4.939  33.692  0.00  0.00     0.217 HD
ENDBRANCH   5  15
TORSDOF 6
ENDMDL
MODEL 3
REMARK VINA RESULT:    -5.126     24.350     25.190
REMARK INTER + INTRA:          -5.546
REMARK INTER:                  -6.585
REMARK INTRA:                   1.039
REMARK UNBOUND:                 0.929
REMARK  6 active torsions:
REMARK  status: ('A' for Active; 'I' for Inactive)
REMARK    1  A    between atoms: O_1  and  C_8 
REMARK    2  A    between atoms: O_2  and  C_9 
REMARK    3  A    between atoms: O_3  and  C_13 
REMARK    4  A    between atoms: C_5  and  C_11 
REMARK    5  A    between atoms: C_11  and  C_12 
REMARK    6  A    between atoms: C_12  and  C_13 
ROOT
ATOM      1  C   UNL d   1      -1.385  30.157  26.048  0.00  0.00    -0.033 A 
ATOM      2  C   UNL d   1      -1.306  29.686  26.927  0.00  0.00     0.050 A 
ATOM      3  C   UNL d   1      -1.957  30.973  25.968  0.00  0.00     0.014 A 
ATOM      4  C   UNL d   1      -1.797  30.033  27.726  0.00  0.00     0.099 A 
ATOM      5  C   UNL d   1      -2.369  30.850  27.646  0.00  0.00     0.098 A 
ATOM      6  C   UNL d   1      -2.448  31.320  26.767  0.00  0.00     0.040 A 
ENDROOT
BRANCH   1   7
ATOM      7  C   UNL d   1      -0.894  29.810  25.249  0.00  0.00     0.018 C 
BRANCH   7   8
ATOM      8  C   UNL d   1       0.106  29.774  25.254  0.00  0.00     0.082 C 
BRANCH   8   9
ATOM      9  C   UNL d   1       0.591  29.261  24.546  0.00  0.00     0.165 C 
ATOM     10  O   UNL d   1       0.605  29.600  23.605  0.00  0.00    -0.647 OA
BRANCH   9  11
ATOM     11  O   UNL d   1       1.062  28.410  24.778  0.00  0.00    -0.773 OA
ATOM     12  H   UNL d   1       0.788  27.865  24.670  0.00  0.00     0.167 HD
ENDBRANCH   9  11
ENDBRANCH   8   9
ENDBRANCH   7   8
ENDBRANCH   1   7
BRANCH   4  13
ATOM     13  O   UNL d   1      -1.717  29.563  28.605  0.00  0.00    -0.358 OA
ATOM     14  H   UNL d   1      -1.316  29.768  29.031  0.00  0.00     0.217 HD
ENDBRANCH   4  13
BRANCH   5  15
ATOM     15  O   UNL d   1      -2.860  31.196  28.445  0.00  0.00    -0.358 OA
ATOM     16  H   UNL d   1      -2.952  30.829  28.936  0.00  0.00     0.217 HD
ENDBRANCH   5  15
TORSDOF 6
ENDMDL
MODEL 4
REMARK VINA RESULT:    -5.052     20.153     21.301
REMARK INTER + INTRA:          -5.452
REMARK INTER:                  -6.444
REMARK INTRA:                   0.992
REMARK UNBOUND:                 0.929
REMARK  6 active torsions:
REMARK  status: ('A' for Active; 'I' for Inactive)
REMARK    1  A    between atoms: O_1  and  C_8 
REMARK    2  A    between atoms: O_2  and  C_9 
REMARK    3  A    between atoms: O_3  and  C_13 
REMARK    4  A    between atoms: C_5  and  C_11 
REMARK    5  A    between atoms: C_11  and  C_12 
REMARK    6  A    between atoms: C_12  and  C_13 
ROOT
ATOM      1  C   UNL d   1      -4.697  24.492  27.187  0.00  0.00    -0.033 A 
ATOM      2  C   UNL d   1      -4.517  23.698  27.768  0.00  0.00     0.050 A 
ATOM      3  C   UNL d   1      -5.622  24.867  27.125  0.00  0.00     0.014 A 
ATOM      4  C   UNL d   1      -5.262  23.279  28.286  0.00  0.00     0.099 A 
ATOM      5  C   UNL d   1      -6.187  23.653  28.224  0.00  0.00     0.098 A 
ATOM      6  C   UNL d   1      -6.367  24.447  27.644  0.00  0.00     0.040 A 
ENDROOT
BRANCH   1   7
ATOM      7  C   UNL d   1      -3.952  24.912  26.669  0.00  0.00     0.018 C 
BRANCH   7   8
ATOM      8  C   UNL d   1      -3.133  25.236  27.143  0.00  0.00     0.082 C 
BRANCH   8   9
ATOM      9  C   UNL d   1      -2.485  25.833  26.670  0.00  0.00     0.165 C 
ATOM     10  O   UNL d   1      -2.014  25.509  25.850  0.00  0.00    -0.647 OA
BRANCH   9  11
ATOM     11  O   UNL d   1      -2.307  26.753  27.019  0.00  0.00    -0.773 OA
ATOM     12  H   UNL d   1      -1.733  26.915  27.188  0.00  0.00     0.167 HD
ENDBRANCH   9  11
ENDBRANCH   8   9
ENDBRANCH   7   8
ENDBRANCH   1   7
BRANCH   4  13
ATOM     13  O   UNL d   1      -5.082  22.484  28.867  0.00  0.00    -0.358 OA
ATOM     14  H   UNL d   1      -4.795  22.557  29.412  0.00  0.00     0.217 HD
ENDBRANCH   4  13
BRANCH   5  15
ATOM     15  O   UNL d   1      -6.932  23.234  28.743  0.00  0.00    -0.358 OA
ATOM     16  H   UNL d   1      -7.120  22.659  28.605  0.00  0.00     0.217 HD
ENDBRANCH   5  15
TORSDOF 6
ENDMDL
MODEL 5
REMARK VINA RESULT:    -5.047     20.399     21.225
REMARK INTER + INTRA:          -5.445
REMARK INTER:                  -6.469
REMARK INTRA:                   1.024
REMARK UNBOUND:                 0.929
REMARK  6 active torsions:
REMARK  status: ('A' for Active; 'I' for Inactive)
REMARK    1  A    between atoms: O_1  and  C_8 
REMARK    2  A    between atoms: O_2  and  C_9 
REMARK    3  A    between atoms: O_3  and  C_13 
REMARK    4  A    between atoms: C_5  and  C_11 
REMARK    5  A    between atoms: C_11  and  C_12 
REMARK    6  A    between atoms: C_12  and  C_13 
ROOT
ATOM      1  C   UNL d   1      -4.481  24.793  26.895  0.00  0.00    -0.033 A 
ATOM      2  C   UNL d   1      -3.554  24.783  27.269  0.00  0.00     0.050 A 
ATOM      3  C   UNL d   1      -4.796  25.577  26.360  0.00  0.00     0.014 A 
ATOM      4  C   UNL d   1      -2.942  25.558  27.108  0.00  0.00     0.099 A 
ATOM      5  C   UNL d   1      -3.257  26.342  26.573  0.00  0.00     0.098 A 
ATOM      6  C   UNL d   1      -4.184  26.351  26.199  0.00  0.00     0.040 A 
ENDROOT
BRANCH   1   7
ATOM      7  C   UNL d   1      -5.093  24.019  27.056  0.00  0.00     0.018 C 
BRANCH   7   8
ATOM      8  C   UNL d   1      -5.161  23.617  27.969  0.00  0.00     0.082 C 
BRANCH   8   9
ATOM      9  C   UNL d   1      -5.881  22.951  28.170  0.00  0.00     0.165 C 
ATOM     10  O   UNL d   1      -5.925  22.094  27.658  0.00  0.00    -0.647 OA
BRANCH   9  11
ATOM     11  O   UNL d   1      -6.555  23.144  28.882  0.00  0.00    -0.773 OA
ATOM     12  H   UNL d   1      -6.399  23.494  29.370  0.00  0.00     0.167 HD
ENDBRANCH   9  11
ENDBRANCH   8   9
ENDBRANCH   7   8
ENDBRANCH   1   7
BRANCH   4  13
ATOM     13  O   UNL d   1      -2.014  25.548  27.482  0.00  0.00    -0.358 OA
ATOM     14  H   UNL d   1      -1.550  25.812  27.167  0.00  0.00     0.217 HD
ENDBRANCH   4  13
BRANCH   5  15
ATOM     15  O   UNL d   1      -2.645  27.116  26.412  0.00  0.00    -0.358 OA
ATOM     16  H   UNL d   1      -2.131  27.040  26.074  0.00  0.00     0.217 HD
ENDBRANCH   5  15
TORSDOF 6
ENDMDL
