MODEL 1
REMARK VINA RESULT:    -8.303      0.000      0.000
REMARK INTER + INTRA:          -8.248
REMARK INTER:                  -9.274
REMARK INTRA:                   1.026
REMARK UNBOUND:                 1.026
REMARK  3 active torsions:
REMARK  status: ('A' for Active; 'I' for Inactive)
REMARK    1  A    between atoms: O_2  and  C_10 
REMARK    2  A    between atoms: O_4  and  C_13 
REMARK    3  A    between atoms: C_7  and  C_9 
ROOT
ATOM      1  O   UNL d   1       1.310  34.228  37.857  0.00  0.00    -0.309 OA
ATOM      2  O   UNL d   1       0.781  35.936  35.448  0.00  0.00    -0.287 OA
ATOM      3  C   UNL d   1       1.803  34.836  36.312  0.00  0.00     0.081 A 
ATOM      4  C   UNL d   1       1.979  34.267  37.115  0.00  0.00     0.095 A 
ATOM      5  C   UNL d   1       0.464  34.759  37.796  0.00  0.00     0.090 A 
ATOM      6  C   UNL d   1       0.957  35.367  36.251  0.00  0.00     0.190 A 
ATOM      7  C   UNL d   1       2.490  34.887  35.532  0.00  0.00     0.085 A 
ATOM      8  C   UNL d   1       0.288  35.328  36.993  0.00  0.00     0.094 A 
ATOM      9  C   UNL d   1       2.856  33.709  37.194  0.00  0.00     0.075 A 
ATOM     10  C   UNL d   1       3.557  33.745  36.425  0.00  0.00     0.071 A 
ATOM     11  C   UNL d   1       3.374  34.337  35.589  0.00  0.00     0.074 A 
ENDROOT
BRANCH   5  12
ATOM     12  C   UNL d   1      -0.205  34.720  38.538  0.00  0.00    -0.002 A 
ATOM     13  C   UNL d   1      -0.298  35.490  39.169  0.00  0.00     0.014 A 
ATOM     14  C   UNL d   1      -0.967  35.451  39.911  0.00  0.00     0.001 A 
ATOM     15  C   UNL d   1      -1.543  34.642  40.022  0.00  0.00     0.000 A 
ATOM     16  C   UNL d   1      -1.451  33.871  39.392  0.00  0.00     0.001 A 
ATOM     17  C   UNL d   1      -0.781  33.910  38.650  0.00  0.00     0.014 A 
ENDBRANCH   5  12
BRANCH   7  18
ATOM     18  O   UNL d   1       2.304  35.459  34.734  0.00  0.00    -0.360 OA
ATOM     19  H   UNL d   1       2.286  36.076  34.792  0.00  0.00     0.217 HD
ENDBRANCH   7  18
BRANCH  10  20
ATOM     20  O   UNL d   1       4.402  33.213  36.490  0.00  0.00    -0.361 OA
ATOM     21  H   UNL d   1       4.911  33.402  36.191  0.00  0.00     0.217 HD
ENDBRANCH  10  20
TORSDOF 3
ENDMDL
MODEL 2
REMARK VINA RESULT:    -8.208      0.910      2.171
REMARK INTER + INTRA:          -8.142
REMARK INTER:                  -9.201
REMARK INTRA:                   1.059
REMARK UNBOUND:                 1.026
REMARK  3 active torsions:
REMARK  status: ('A' for Active; 'I' for Inactive)
REMARK    1  A    between atoms: O_2  and  C_10 
REMARK    2  A    between atoms: O_4  and  C_13 
REMARK    3  A    between atoms: C_7  and  C_9 
ROOT
ATOM      1  O   UNL d   1       0.536  35.403  37.114  0.00  0.00    -0.309 OA
ATOM      2  O   UNL d   1       2.615  33.240  37.105  0.00  0.00    -0.287 OA
ATOM      3  C   UNL d   1       1.912  34.648  36.381  0.00  0.00     0.081 A 
ATOM      4  C   UNL d   1       1.219  35.369  36.384  0.00  0.00     0.095 A 
ATOM      5  C   UNL d   1       0.547  34.716  37.841  0.00  0.00     0.090 A 
ATOM      6  C   UNL d   1       1.922  33.961  37.108  0.00  0.00     0.190 A 
ATOM      7  C   UNL d   1       2.629  34.599  35.627  0.00  0.00     0.085 A 
ATOM      8  C   UNL d   1       1.240  33.995  37.838  0.00  0.00     0.094 A 
ATOM      9  C   UNL d   1       1.195  36.091  35.634  0.00  0.00     0.075 A 
ATOM     10  C   UNL d   1       1.902  36.061  34.870  0.00  0.00     0.071 A 
ATOM     11  C   UNL d   1       2.624  35.311  34.867  0.00  0.00     0.074 A 
ENDROOT
BRANCH   5  12
ATOM     12  C   UNL d   1      -0.136  34.751  38.571  0.00  0.00    -0.002 A 
ATOM     13  C   UNL d   1      -0.822  34.027  38.649  0.00  0.00     0.014 A 
ATOM     14  C   UNL d   1      -1.504  34.061  39.379  0.00  0.00     0.001 A 
ATOM     15  C   UNL d   1      -1.501  34.819  40.031  0.00  0.00     0.000 A 
ATOM     16  C   UNL d   1      -0.815  35.543  39.953  0.00  0.00     0.001 A 
ATOM     17  C   UNL d   1      -0.133  35.509  39.223  0.00  0.00     0.014 A 
ENDBRANCH   5  12
BRANCH   7  18
ATOM     18  O   UNL d   1       3.317  33.874  35.634  0.00  0.00    -0.360 OA
ATOM     19  H   UNL d   1       3.405  33.525  35.130  0.00  0.00     0.217 HD
ENDBRANCH   7  18
BRANCH  10  20
ATOM     20  O   UNL d   1       1.888  36.750  34.145  0.00  0.00    -0.361 OA
ATOM     21  H   UNL d   1       2.209  37.276  34.211  0.00  0.00     0.217 HD
ENDBRANCH  10  20
TORSDOF 3
ENDMDL
MODEL 3
REMARK VINA RESULT:    -8.169      1.488      2.383
REMARK INTER + INTRA:          -8.098
REMARK INTER:                  -9.098
REMARK INTRA:                   1.000
REMARK UNBOUND:                 1.026
REMARK  3 active torsions:
REMARK  status: ('A' for Active; 'I' for Inactive)
REMARK    1  A    between atoms: O_2  and  C_10 
REMARK    2  A    between atoms: O_4  and  C_13 
REMARK    3  A    between atoms: C_7  and  C_9 
ROOT
ATOM      1  O   UNL d   1       1.131  34.176  38.206  0.00  0.00    -0.309 OA
ATOM      2  O   UNL d   1       3.425  34.503  40.111  0.00  0.00    -0.287 OA
ATOM      3  C   UNL d   1       2.833  34.145  38.523  0.00  0.00     0.081 A 
ATOM      4  C   UNL d   1       2.069  34.036  37.888  0.00  0.00     0.095 A 
ATOM      5  C   UNL d   1       0.958  34.425  39.159  0.00  0.00     0.090 A 
ATOM      6  C   UNL d   1       2.660  34.394  39.476  0.00  0.00     0.190 A 
ATOM      7  C   UNL d   1       3.815  34.002  38.207  0.00  0.00     0.085 A 
ATOM      8  C   UNL d   1       1.723  34.534  39.794  0.00  0.00     0.094 A 
ATOM      9  C   UNL d   1       2.233  33.776  36.893  0.00  0.00     0.075 A 
ATOM     10  C   UNL d   1       3.207  33.629  36.554  0.00  0.00     0.071 A 
ATOM     11  C   UNL d   1       4.003  33.742  37.215  0.00  0.00     0.074 A 
ENDROOT
BRANCH   5  12
ATOM     12  C   UNL d   1       0.020  34.565  39.477  0.00  0.00    -0.002 A 
ATOM     13  C   UNL d   1      -0.380  35.481  39.465  0.00  0.00     0.014 A 
ATOM     14  C   UNL d   1      -1.318  35.621  39.783  0.00  0.00     0.001 A 
ATOM     15  C   UNL d   1      -1.855  34.845  40.113  0.00  0.00     0.000 A 
ATOM     16  C   UNL d   1      -1.455  33.929  40.125  0.00  0.00     0.001 A 
ATOM     17  C   UNL d   1      -0.517  33.789  39.807  0.00  0.00     0.014 A 
ENDBRANCH   5  12
BRANCH   7  18
ATOM     18  O   UNL d   1       4.572  34.113  38.850  0.00  0.00    -0.360 OA
ATOM     19  H   UNL d   1       4.850  34.664  38.909  0.00  0.00     0.217 HD
ENDBRANCH   7  18
BRANCH  10  20
ATOM     20  O   UNL d   1       3.375  33.379  35.600  0.00  0.00    -0.361 OA
ATOM     21  H   UNL d   1       3.888  33.578  35.315  0.00  0.00     0.217 HD
ENDBRANCH  10  20
TORSDOF 3
ENDMDL
MODEL 4
REMARK VINA RESULT:    -7.466      3.364      4.465
REMARK INTER + INTRA:          -7.313
REMARK INTER:                  -8.436
REMARK INTRA:                   1.123
REMARK UNBOUND:                 1.026
REMARK  3 active torsions:
REMARK  status: ('A' for Active; 'I' for Inactive)
REMARK    1  A    between atoms: O_2  and  C_10 
REMARK    2  A    between atoms: O_4  and  C_13 
REMARK    3  A    between atoms: C_7  and  C_9 
ROOT
ATOM      1  O   UNL d   1       3.829  36.303  37.824  0.00  0.00    -0.309 OA
ATOM      2  O   UNL d   1       6.752  35.628  37.856  0.00  0.00    -0.287 OA
ATOM      3  C   UNL d   1       5.451  36.635  37.315  0.00  0.00     0.081 A 
ATOM      4  C   UNL d   1       4.477  36.860  37.304  0.00  0.00     0.095 A 
ATOM      5  C   UNL d   1       4.156  35.521  38.355  0.00  0.00     0.090 A 
ATOM      6  C   UNL d   1       5.778  35.853  37.845  0.00  0.00     0.190 A 
ATOM      7  C   UNL d   1       6.137  37.206  36.778  0.00  0.00     0.085 A 
ATOM      8  C   UNL d   1       5.130  35.296  38.365  0.00  0.00     0.094 A 
ATOM      9  C   UNL d   1       4.121  37.672  36.757  0.00  0.00     0.075 A 
ATOM     10  C   UNL d   1       4.790  38.257  36.212  0.00  0.00     0.071 A 
ATOM     11  C   UNL d   1       5.804  38.023  36.223  0.00  0.00     0.074 A 
ENDROOT
BRANCH   5  12
ATOM     12  C   UNL d   1       3.509  34.964  38.875  0.00  0.00    -0.002 A 
ATOM     13  C   UNL d   1       2.919  35.392  39.560  0.00  0.00     0.014 A 
ATOM     14  C   UNL d   1       2.271  34.835  40.080  0.00  0.00     0.001 A 
ATOM     15  C   UNL d   1       2.214  33.850  39.915  0.00  0.00     0.000 A 
ATOM     16  C   UNL d   1       2.804  33.422  39.230  0.00  0.00     0.001 A 
ATOM     17  C   UNL d   1       3.451  33.980  38.710  0.00  0.00     0.014 A 
ENDBRANCH   5  12
BRANCH   7  18
ATOM     18  O   UNL d   1       7.109  36.972  36.796  0.00  0.00    -0.360 OA
ATOM     19  H   UNL d   1       7.335  36.558  36.394  0.00  0.00     0.217 HD
ENDBRANCH   7  18
BRANCH  10  20
ATOM     20  O   UNL d   1       4.458  39.038  35.683  0.00  0.00    -0.361 OA
ATOM     21  H   UNL d   1       4.798  39.556  35.650  0.00  0.00     0.217 HD
ENDBRANCH  10  20
TORSDOF 3
ENDMDL
MODEL 5
REMARK VINA RESULT:    -7.384      2.910      4.342
REMARK INTER + INTRA:          -7.221
REMARK INTER:                  -8.385
REMARK INTRA:                   1.164
REMARK UNBOUND:                 1.026
REMARK  3 active torsions:
REMARK  status: ('A' for Active; 'I' for Inactive)
REMARK    1  A    between atoms: O_2  and  C_10 
REMARK    2  A    between atoms: O_4  and  C_13 
REMARK    3  A    between atoms: C_7  and  C_9 
ROOT
ATOM      1  O   UNL d   1       3.307  35.202  36.318  0.00  0.00    -0.309 OA
ATOM      2  O   UNL d   1       3.056  35.261  39.307  0.00  0.00    -0.287 OA
ATOM      3  C   UNL d   1       3.218  34.366  37.832  0.00  0.00     0.081 A 
ATOM      4  C   UNL d   1       3.301  34.346  36.836  0.00  0.00     0.095 A 
ATOM      5  C   UNL d   1       3.228  36.076  36.796  0.00  0.00     0.090 A 
ATOM      6  C   UNL d   1       3.139  35.241  38.310  0.00  0.00     0.190 A 
ATOM      7  C   UNL d   1       3.211  33.484  38.385  0.00  0.00     0.085 A 
ATOM      8  C   UNL d   1       3.145  36.096  37.792  0.00  0.00     0.094 A 
ATOM      9  C   UNL d   1       3.384  33.443  36.324  0.00  0.00     0.075 A 
ATOM     10  C   UNL d   1       3.379  32.548  36.857  0.00  0.00     0.071 A 
ATOM     11  C   UNL d   1       3.292  32.569  37.894  0.00  0.00     0.074 A 
ENDROOT
BRANCH   5  12
ATOM     12  C   UNL d   1       3.234  36.932  36.277  0.00  0.00    -0.002 A 
ATOM     13  C   UNL d   1       3.857  37.669  36.537  0.00  0.00     0.014 A 
ATOM     14  C   UNL d   1       3.862  38.525  36.018  0.00  0.00     0.001 A 
ATOM     15  C   UNL d   1       3.245  38.642  35.241  0.00  0.00     0.000 A 
ATOM     16  C   UNL d   1       2.621  37.904  34.982  0.00  0.00     0.001 A 
ATOM     17  C   UNL d   1       2.616  37.049  35.500  0.00  0.00     0.014 A 
ENDBRANCH   5  12
BRANCH   7  18
ATOM     18  O   UNL d   1       3.126  33.515  39.381  0.00  0.00    -0.360 OA
ATOM     19  H   UNL d   1       3.147  34.060  39.676  0.00  0.00     0.217 HD
ENDBRANCH   7  18
BRANCH  10  20
ATOM     20  O   UNL d   1       3.457  31.675  36.375  0.00  0.00    -0.361 OA
ATOM     21  H   UNL d   1       3.108  31.565  35.875  0.00  0.00     0.217 HD
ENDBRANCH  10  20
TORSDOF 3
ENDMDL
