MODEL 1
REMARK VINA RESULT:    -8.034      0.000      0.000
REMARK INTER + INTRA:           1.571
REMARK INTER:                 -10.868
REMARK INTRA:                  12.439
REMARK UNBOUND:                12.423
REMARK  9 active torsions:
REMARK  status: ('A' for Active; 'I' for Inactive)
REMARK    1  A    between atoms: C_15  and  O_2 
REMARK    2  A    between atoms: O_2  and  C_17 
REMARK    3  A    between atoms: C_11  and  O_3 
REMARK    4  A    between atoms: C_12  and  O_4 
REMARK    5  A    between atoms: C_13  and  O_5 
REMARK    6  A    between atoms: O_8  and  C_23 
REMARK    7  A    between atoms: O_9  and  C_28 
REMARK    8  A    between atoms: O_10  and  C_31 
REMARK    9  A    between atoms: C_18  and  C_22 
ROOT
ATOM      1  O   UNL d   1      -6.728  25.693  26.813  0.00  0.00    -0.306 OA
ATOM      2  O   UNL d   1      -4.212  24.169  27.403  0.00  0.00    -0.284 OA
ATOM      3  C   UNL d   1      -5.000  25.626  26.895  0.00  0.00     0.157 A 
ATOM      4  C   UNL d   1      -5.838  26.134  26.699  0.00  0.00     0.123 A 
ATOM      5  C   UNL d   1      -5.051  24.677  27.207  0.00  0.00     0.223 A 
ATOM      6  C   UNL d   1      -5.941  24.237  27.322  0.00  0.00     0.084 A 
ATOM      7  C   UNL d   1      -6.780  24.744  27.125  0.00  0.00     0.096 A 
ATOM      8  C   UNL d   1      -5.979  23.248  27.647  0.00  0.00     0.085 A 
ATOM      9  C   UNL d   1      -7.715  24.299  27.240  0.00  0.00     0.075 A 
ATOM     10  C   UNL d   1      -6.903  22.781  27.769  0.00  0.00     0.074 A 
ATOM     11  C   UNL d   1      -7.777  23.310  27.564  0.00  0.00     0.071 A 
ENDROOT
BRANCH   3  12
ATOM     12  O   UNL d   1      -4.109  26.067  26.780  0.00  0.00    -0.311 OA
BRANCH  12  13
ATOM     13  C   UNL d   1      -3.487  25.757  26.062  0.00  0.00     0.298 A 
ATOM     14  O   UNL d   1      -3.853  25.385  25.209  0.00  0.00    -0.351 OA
ATOM     15  C   UNL d   1      -3.230  25.075  24.491  0.00  0.00     0.152 A 
ATOM     16  C   UNL d   1      -2.241  25.136  24.626  0.00  0.00     0.178 A 
ATOM     17  C   UNL d   1      -3.596  24.703  23.638  0.00  0.00     0.042 C 
ATOM     18  C   UNL d   1      -1.875  25.507  25.479  0.00  0.00     0.183 A 
ATOM     19  C   UNL d   1      -2.498  25.818  26.197  0.00  0.00     0.205 A 
BRANCH  16  20
ATOM     20  O   UNL d   1      -1.618  24.825  23.908  0.00  0.00    -0.390 OA
ATOM     21  H   UNL d   1      -1.728  24.975  23.316  0.00  0.00     0.210 HD
ENDBRANCH  16  20
BRANCH  18  22
ATOM     22  O   UNL d   1      -0.886  25.568  25.614  0.00  0.00    -0.390 OA
ATOM     23  H   UNL d   1      -0.502  25.252  25.243  0.00  0.00     0.210 HD
ENDBRANCH  18  22
BRANCH  19  24
ATOM     24  O   UNL d   1      -2.131  26.189  27.050  0.00  0.00    -0.388 OA
ATOM     25  H   UNL d   1      -1.667  25.899  27.341  0.00  0.00     0.210 HD
ENDBRANCH  19  24
ENDBRANCH  12  13
ENDBRANCH   3  12
BRANCH   4  26
ATOM     26  C   UNL d   1      -5.787  27.083  26.387  0.00  0.00     0.001 A 
ATOM     27  C   UNL d   1      -5.964  27.305  25.428  0.00  0.00     0.017 A 
ATOM     28  C   UNL d   1      -5.912  28.254  25.117  0.00  0.00     0.037 A 
ATOM     29  C   UNL d   1      -5.683  28.981  25.764  0.00  0.00     0.065 A 
ATOM     30  C   UNL d   1      -5.506  28.759  26.723  0.00  0.00     0.037 A 
ATOM     31  C   UNL d   1      -5.557  27.810  27.034  0.00  0.00     0.017 A 
BRANCH  29  32
ATOM     32  O   UNL d   1      -5.632  29.929  25.452  0.00  0.00    -0.361 OA
ATOM     33  H   UNL d   1      -5.498  30.054  24.860  0.00  0.00     0.217 HD
ENDBRANCH  29  32
ENDBRANCH   4  26
BRANCH   8  34
ATOM     34  O   UNL d   1      -5.134  22.749  27.841  0.00  0.00    -0.360 OA
ATOM     35  H   UNL d   1      -4.612  23.060  27.964  0.00  0.00     0.217 HD
ENDBRANCH   8  34
BRANCH  11  36
ATOM     36  O   UNL d   1      -8.669  22.873  27.678  0.00  0.00    -0.361 OA
ATOM     37  H   UNL d   1      -9.059  23.074  28.116  0.00  0.00     0.217 HD
ENDBRANCH  11  36
TORSDOF 9
ENDMDL
MODEL 2
REMARK VINA RESULT:    -8.009      3.367      6.323
REMARK INTER + INTRA:           1.605
REMARK INTER:                 -10.835
REMARK INTRA:                  12.440
REMARK UNBOUND:                12.423
REMARK  9 active torsions:
REMARK  status: ('A' for Active; 'I' for Inactive)
REMARK    1  A    between atoms: C_15  and  O_2 
REMARK    2  A    between atoms: O_2  and  C_17 
REMARK    3  A    between atoms: C_11  and  O_3 
REMARK    4  A    between atoms: C_12  and  O_4 
REMARK    5  A    between atoms: C_13  and  O_5 
REMARK    6  A    between atoms: O_8  and  C_23 
REMARK    7  A    between atoms: O_9  and  C_28 
REMARK    8  A    between atoms: O_10  and  C_31 
REMARK    9  A    between atoms: C_18  and  C_22 
ROOT
ATOM      1  O   UNL d   1      -0.545  29.717  25.451  0.00  0.00    -0.306 OA
ATOM      2  O   UNL d   1      -2.326  27.999  23.756  0.00  0.00    -0.284 OA
ATOM      3  C   UNL d   1      -2.112  29.069  25.101  0.00  0.00     0.157 A 
ATOM      4  C   UNL d   1      -1.518  29.641  25.666  0.00  0.00     0.123 A 
ATOM      5  C   UNL d   1      -1.732  28.572  24.321  0.00  0.00     0.223 A 
ATOM      6  C   UNL d   1      -0.759  28.647  24.105  0.00  0.00     0.084 A 
ATOM      7  C   UNL d   1      -0.165  29.220  24.671  0.00  0.00     0.096 A 
ATOM      8  C   UNL d   1      -0.378  28.123  23.290  0.00  0.00     0.085 A 
ATOM      9  C   UNL d   1       0.852  29.308  24.459  0.00  0.00     0.075 A 
ATOM     10  C   UNL d   1       0.636  28.197  23.059  0.00  0.00     0.074 A 
ATOM     11  C   UNL d   1       1.255  28.793  23.648  0.00  0.00     0.071 A 
ENDROOT
BRANCH   3  12
ATOM     12  O   UNL d   1      -3.086  28.993  25.316  0.00  0.00    -0.311 OA
BRANCH  12  13
ATOM     13  C   UNL d   1      -3.456  28.131  25.660  0.00  0.00     0.298 A 
ATOM     14  O   UNL d   1      -2.847  27.456  26.078  0.00  0.00    -0.351 OA
ATOM     15  C   UNL d   1      -3.218  26.594  26.423  0.00  0.00     0.152 A 
ATOM     16  C   UNL d   1      -4.197  26.406  26.349  0.00  0.00     0.178 A 
ATOM     17  C   UNL d   1      -2.609  25.919  26.840  0.00  0.00     0.042 C 
ATOM     18  C   UNL d   1      -4.806  27.080  25.931  0.00  0.00     0.183 A 
ATOM     19  C   UNL d   1      -4.436  27.942  25.587  0.00  0.00     0.205 A 
BRANCH  16  20
ATOM     20  O   UNL d   1      -4.568  25.543  26.694  0.00  0.00    -0.390 OA
ATOM     21  H   UNL d   1      -5.077  25.544  27.047  0.00  0.00     0.210 HD
ENDBRANCH  16  20
BRANCH  18  22
ATOM     22  O   UNL d   1      -5.786  26.892  25.858  0.00  0.00    -0.390 OA
ATOM     23  H   UNL d   1      -6.123  26.802  26.370  0.00  0.00     0.210 HD
ENDBRANCH  18  22
BRANCH  19  24
ATOM     24  O   UNL d   1      -5.045  28.617  25.169  0.00  0.00    -0.388 OA
ATOM     25  H   UNL d   1      -5.632  28.666  25.362  0.00  0.00     0.210 HD
ENDBRANCH  19  24
ENDBRANCH  12  13
ENDBRANCH   3  12
BRANCH   4  26
ATOM     26  C   UNL d   1      -1.898  30.138  26.446  0.00  0.00     0.001 A 
ATOM     27  C   UNL d   1      -2.419  30.979  26.298  0.00  0.00     0.017 A 
ATOM     28  C   UNL d   1      -2.799  31.476  27.078  0.00  0.00     0.037 A 
ATOM     29  C   UNL d   1      -2.657  31.133  28.006  0.00  0.00     0.065 A 
ATOM     30  C   UNL d   1      -2.136  30.292  28.155  0.00  0.00     0.037 A 
ATOM     31  C   UNL d   1      -1.756  29.795  27.374  0.00  0.00     0.017 A 
BRANCH  29  32
ATOM     32  O   UNL d   1      -3.037  31.630  28.786  0.00  0.00    -0.361 OA
ATOM     33  H   UNL d   1      -3.579  31.926  28.731  0.00  0.00     0.217 HD
ENDBRANCH  29  32
ENDBRANCH   4  26
BRANCH   8  34
ATOM     34  O   UNL d   1      -0.980  27.554  22.731  0.00  0.00    -0.360 OA
ATOM     35  H   UNL d   1      -1.558  27.743  22.606  0.00  0.00     0.217 HD
ENDBRANCH   8  34
BRANCH  11  36
ATOM     36  O   UNL d   1       2.229  28.871  23.436  0.00  0.00    -0.361 OA
ATOM     37  H   UNL d   1       2.641  28.517  23.736  0.00  0.00     0.217 HD
ENDBRANCH  11  36
TORSDOF 9
ENDMDL
MODEL 3
REMARK VINA RESULT:    -7.894     21.651     23.651
REMARK INTER + INTRA:           1.760
REMARK INTER:                 -10.719
REMARK INTRA:                  12.479
REMARK UNBOUND:                12.423
REMARK  9 active torsions:
REMARK  status: ('A' for Active; 'I' for Inactive)
REMARK    1  A    between atoms: C_15  and  O_2 
REMARK    2  A    between atoms: O_2  and  C_17 
REMARK    3  A    between atoms: C_11  and  O_3 
REMARK    4  A    between atoms: C_12  and  O_4 
REMARK    5  A    between atoms: C_13  and  O_5 
REMARK    6  A    between atoms: O_8  and  C_23 
REMARK    7  A    between atoms: O_9  and  C_28 
REMARK    8  A    between atoms: O_10  and  C_31 
REMARK    9  A    between atoms: C_18  and  C_22 
ROOT
ATOM      1  O   UNL d   1       4.130   6.518  37.789  0.00  0.00    -0.306 OA
ATOM      2  O   UNL d   1       3.198   5.152  35.286  0.00  0.00    -0.284 OA
ATOM      3  C   UNL d   1       4.031   6.458  36.061  0.00  0.00     0.157 A 
ATOM      4  C   UNL d   1       4.342   6.914  36.895  0.00  0.00     0.123 A 
ATOM      5  C   UNL d   1       3.509   5.608  36.120  0.00  0.00     0.223 A 
ATOM      6  C   UNL d   1       3.297   5.212  37.014  0.00  0.00     0.084 A 
ATOM      7  C   UNL d   1       3.608   5.667  37.848  0.00  0.00     0.096 A 
ATOM      8  C   UNL d   1       2.753   4.325  37.060  0.00  0.00     0.085 A 
ATOM      9  C   UNL d   1       3.395   5.267  38.787  0.00  0.00     0.075 A 
ATOM     10  C   UNL d   1       2.529   3.907  37.987  0.00  0.00     0.074 A 
ATOM     11  C   UNL d   1       2.852   4.381  38.857  0.00  0.00     0.071 A 
ENDROOT
BRANCH   3  12
ATOM     12  O   UNL d   1       4.242   6.854  35.167  0.00  0.00    -0.311 OA
BRANCH  12  13
ATOM     13  C   UNL d   1       4.847   6.369  34.536  0.00  0.00     0.298 A 
ATOM     14  O   UNL d   1       5.586   5.796  34.891  0.00  0.00    -0.351 OA
ATOM     15  C   UNL d   1       6.191   5.311  34.260  0.00  0.00     0.152 A 
ATOM     16  C   UNL d   1       6.057   5.397  33.273  0.00  0.00     0.178 A 
ATOM     17  C   UNL d   1       6.929   4.738  34.616  0.00  0.00     0.042 C 
ATOM     18  C   UNL d   1       5.318   5.970  32.917  0.00  0.00     0.183 A 
ATOM     19  C   UNL d   1       4.713   6.455  33.548  0.00  0.00     0.205 A 
BRANCH  16  20
ATOM     20  O   UNL d   1       6.661   4.912  32.642  0.00  0.00    -0.390 OA
ATOM     21  H   UNL d   1       6.648   5.045  32.036  0.00  0.00     0.210 HD
ENDBRANCH  16  20
BRANCH  18  22
ATOM     22  O   UNL d   1       5.184   6.056  31.930  0.00  0.00    -0.390 OA
ATOM     23  H   UNL d   1       5.276   6.603  31.651  0.00  0.00     0.210 HD
ENDBRANCH  18  22
BRANCH  19  24
ATOM     24  O   UNL d   1       3.974   7.028  33.193  0.00  0.00    -0.388 OA
ATOM     25  H   UNL d   1       3.797   7.534  33.503  0.00  0.00     0.210 HD
ENDBRANCH  19  24
ENDBRANCH  12  13
ENDBRANCH   3  12
BRANCH   4  26
ATOM     26  C   UNL d   1       4.864   7.765  36.836  0.00  0.00     0.001 A 
ATOM     27  C   UNL d   1       5.850   7.758  36.997  0.00  0.00     0.017 A 
ATOM     28  C   UNL d   1       6.373   8.609  36.938  0.00  0.00     0.037 A 
ATOM     29  C   UNL d   1       5.908   9.466  36.717  0.00  0.00     0.065 A 
ATOM     30  C   UNL d   1       4.921   9.473  36.556  0.00  0.00     0.037 A 
ATOM     31  C   UNL d   1       4.399   8.622  36.615  0.00  0.00     0.017 A 
BRANCH  29  32
ATOM     32  O   UNL d   1       6.430  10.317  36.658  0.00  0.00    -0.361 OA
ATOM     33  H   UNL d   1       6.654  10.506  36.111  0.00  0.00     0.217 HD
ENDBRANCH  29  32
ENDBRANCH   4  26
BRANCH   8  34
ATOM     34  O   UNL d   1       2.447   3.879  36.219  0.00  0.00    -0.360 OA
ATOM     35  H   UNL d   1       2.267   4.221  35.734  0.00  0.00     0.217 HD
ENDBRANCH   8  34
BRANCH  11  36
ATOM     36  O   UNL d   1       2.642   3.989  39.752  0.00  0.00    -0.361 OA
ATOM     37  H   UNL d   1       2.710   4.332  40.264  0.00  0.00     0.217 HD
ENDBRANCH  11  36
TORSDOF 9
ENDMDL
MODEL 4
REMARK VINA RESULT:    -7.805      2.626      3.807
REMARK INTER + INTRA:           1.881
REMARK INTER:                 -10.569
REMARK INTRA:                  12.450
REMARK UNBOUND:                12.423
REMARK  9 active torsions:
REMARK  status: ('A' for Active; 'I' for Inactive)
REMARK    1  A    between atoms: C_15  and  O_2 
REMARK    2  A    between atoms: O_2  and  C_17 
REMARK    3  A    between atoms: C_11  and  O_3 
REMARK    4  A    between atoms: C_12  and  O_4 
REMARK    5  A    between atoms: C_13  and  O_5 
REMARK    6  A    between atoms: O_8  and  C_23 
REMARK    7  A    between atoms: O_9  and  C_28 
REMARK    8  A    between atoms: O_10  and  C_31 
REMARK    9  A    between atoms: C_18  and  C_22 
ROOT
ATOM      1  O   UNL d   1      -5.754  30.065  26.688  0.00  0.00    -0.306 OA
ATOM      2  O   UNL d   1      -5.257  27.129  27.055  0.00  0.00    -0.284 OA
ATOM      3  C   UNL d   1      -4.654  28.731  26.785  0.00  0.00     0.157 A 
ATOM      4  C   UNL d   1      -4.820  29.709  26.663  0.00  0.00     0.123 A 
ATOM      5  C   UNL d   1      -5.423  28.108  26.932  0.00  0.00     0.223 A 
ATOM      6  C   UNL d   1      -6.357  28.464  26.957  0.00  0.00     0.084 A 
ATOM      7  C   UNL d   1      -6.523  29.442  26.835  0.00  0.00     0.096 A 
ATOM      8  C   UNL d   1      -7.147  27.803  27.112  0.00  0.00     0.085 A 
ATOM      9  C   UNL d   1      -7.491  29.828  26.859  0.00  0.00     0.075 A 
ATOM     10  C   UNL d   1      -8.124  28.166  27.139  0.00  0.00     0.074 A 
ATOM     11  C   UNL d   1      -8.297  29.185  27.012  0.00  0.00     0.071 A 
ENDROOT
BRANCH   3  12
ATOM     12  O   UNL d   1      -3.720  28.375  26.760  0.00  0.00    -0.311 OA
BRANCH  12  13
ATOM     13  C   UNL d   1      -3.437  27.765  26.020  0.00  0.00     0.298 A 
ATOM     14  O   UNL d   1      -3.849  27.856  25.113  0.00  0.00    -0.351 OA
ATOM     15  C   UNL d   1      -3.565  27.246  24.372  0.00  0.00     0.152 A 
ATOM     16  C   UNL d   1      -2.870  26.547  24.539  0.00  0.00     0.178 A 
ATOM     17  C   UNL d   1      -3.977  27.337  23.465  0.00  0.00     0.042 C 
ATOM     18  C   UNL d   1      -2.459  26.456  25.445  0.00  0.00     0.183 A 
ATOM     19  C   UNL d   1      -2.742  27.066  26.186  0.00  0.00     0.205 A 
BRANCH  16  20
ATOM     20  O   UNL d   1      -2.587  25.937  23.798  0.00  0.00    -0.390 OA
ATOM     21  H   UNL d   1      -2.919  25.429  23.671  0.00  0.00     0.210 HD
ENDBRANCH  16  20
BRANCH  18  22
ATOM     22  O   UNL d   1      -1.764  25.757  25.612  0.00  0.00    -0.390 OA
ATOM     23  H   UNL d   1      -1.338  25.634  25.179  0.00  0.00     0.210 HD
ENDBRANCH  18  22
BRANCH  19  24
ATOM     24  O   UNL d   1      -2.331  26.976  27.093  0.00  0.00    -0.388 OA
ATOM     25  H   UNL d   1      -1.722  27.067  27.168  0.00  0.00     0.210 HD
ENDBRANCH  19  24
ENDBRANCH  12  13
ENDBRANCH   3  12
BRANCH   4  26
ATOM     26  C   UNL d   1      -4.052  30.332  26.516  0.00  0.00     0.001 A 
ATOM     27  C   UNL d   1      -3.475  30.605  27.286  0.00  0.00     0.017 A 
ATOM     28  C   UNL d   1      -2.707  31.228  27.139  0.00  0.00     0.037 A 
ATOM     29  C   UNL d   1      -2.515  31.577  26.222  0.00  0.00     0.065 A 
ATOM     30  C   UNL d   1      -3.092  31.304  25.452  0.00  0.00     0.037 A 
ATOM     31  C   UNL d   1      -3.860  30.681  25.599  0.00  0.00     0.017 A 
BRANCH  29  32
ATOM     32  O   UNL d   1      -1.747  32.200  26.074  0.00  0.00    -0.361 OA
ATOM     33  H   UNL d   1      -1.799  32.799  26.228  0.00  0.00     0.217 HD
ENDBRANCH  29  32
ENDBRANCH   4  26
BRANCH   8  34
ATOM     34  O   UNL d   1      -6.970  26.826  27.233  0.00  0.00    -0.360 OA
ATOM     35  H   UNL d   1      -6.971  26.447  26.741  0.00  0.00     0.217 HD
ENDBRANCH   8  34
BRANCH  11  36
ATOM     36  O   UNL d   1      -9.229  29.545  27.036  0.00  0.00    -0.361 OA
ATOM     37  H   UNL d   1      -9.543  29.557  27.571  0.00  0.00     0.217 HD
ENDBRANCH  11  36
TORSDOF 9
ENDMDL
MODEL 5
REMARK VINA RESULT:    -7.762      2.494      5.057
REMARK INTER + INTRA:           1.939
REMARK INTER:                 -10.603
REMARK INTRA:                  12.541
REMARK UNBOUND:                12.423
REMARK  9 active torsions:
REMARK  status: ('A' for Active; 'I' for Inactive)
REMARK    1  A    between atoms: C_15  and  O_2 
REMARK    2  A    between atoms: O_2  and  C_17 
REMARK    3  A    between atoms: C_11  and  O_3 
REMARK    4  A    between atoms: C_12  and  O_4 
REMARK    5  A    between atoms: C_13  and  O_5 
REMARK    6  A    between atoms: O_8  and  C_23 
REMARK    7  A    between atoms: O_9  and  C_28 
REMARK    8  A    between atoms: O_10  and  C_31 
REMARK    9  A    between atoms: C_18  and  C_22 
ROOT
ATOM      1  O   UNL d   1      -2.572  28.739  24.160  0.00  0.00    -0.306 OA
ATOM      2  O   UNL d   1      -2.233  25.799  24.655  0.00  0.00    -0.284 OA
ATOM      3  C   UNL d   1      -2.466  27.405  25.261  0.00  0.00     0.157 A 
ATOM      4  C   UNL d   1      -2.579  28.385  25.095  0.00  0.00     0.123 A 
ATOM      5  C   UNL d   1      -2.346  26.779  24.490  0.00  0.00     0.223 A 
ATOM      6  C   UNL d   1      -2.338  27.133  23.555  0.00  0.00     0.084 A 
ATOM      7  C   UNL d   1      -2.451  28.113  23.390  0.00  0.00     0.096 A 
ATOM      8  C   UNL d   1      -2.212  26.468  22.763  0.00  0.00     0.085 A 
ATOM      9  C   UNL d   1      -2.445  28.496  22.421  0.00  0.00     0.075 A 
ATOM     10  C   UNL d   1      -2.203  26.830  21.785  0.00  0.00     0.074 A 
ATOM     11  C   UNL d   1      -2.320  27.850  21.613  0.00  0.00     0.071 A 
ENDROOT
BRANCH   3  12
ATOM     12  O   UNL d   1      -2.474  27.052  26.196  0.00  0.00    -0.311 OA
BRANCH  12  13
ATOM     13  C   UNL d   1      -3.207  26.440  26.493  0.00  0.00     0.298 A 
ATOM     14  O   UNL d   1      -4.137  26.572  26.152  0.00  0.00    -0.351 OA
ATOM     15  C   UNL d   1      -4.870  25.959  26.450  0.00  0.00     0.152 A 
ATOM     16  C   UNL d   1      -4.672  25.215  27.087  0.00  0.00     0.178 A 
ATOM     17  C   UNL d   1      -5.801  26.092  26.109  0.00  0.00     0.042 C 
ATOM     18  C   UNL d   1      -3.741  25.083  27.428  0.00  0.00     0.183 A 
ATOM     19  C   UNL d   1      -3.009  25.695  27.131  0.00  0.00     0.205 A 
BRANCH  16  20
ATOM     20  O   UNL d   1      -5.405  24.603  27.384  0.00  0.00    -0.390 OA
ATOM     21  H   UNL d   1      -5.709  24.717  27.913  0.00  0.00     0.210 HD
ENDBRANCH  16  20
BRANCH  18  22
ATOM     22  O   UNL d   1      -3.543  24.339  28.066  0.00  0.00    -0.390 OA
ATOM     23  H   UNL d   1      -3.016  24.342  28.391  0.00  0.00     0.210 HD
ENDBRANCH  18  22
BRANCH  19  24
ATOM     24  O   UNL d   1      -2.078  25.563  27.471  0.00  0.00    -0.388 OA
ATOM     25  H   UNL d   1      -1.953  25.097  27.860  0.00  0.00     0.210 HD
ENDBRANCH  19  24
ENDBRANCH  12  13
ENDBRANCH   3  12
BRANCH   4  26
ATOM     26  C   UNL d   1      -2.700  29.011  25.866  0.00  0.00     0.001 A 
ATOM     27  C   UNL d   1      -3.602  29.396  26.061  0.00  0.00     0.017 A 
ATOM     28  C   UNL d   1      -3.722  30.022  26.831  0.00  0.00     0.037 A 
ATOM     29  C   UNL d   1      -2.941  30.263  27.406  0.00  0.00     0.065 A 
ATOM     30  C   UNL d   1      -2.039  29.879  27.211  0.00  0.00     0.037 A 
ATOM     31  C   UNL d   1      -1.918  29.253  26.441  0.00  0.00     0.017 A 
BRANCH  29  32
ATOM     32  O   UNL d   1      -3.061  30.890  28.177  0.00  0.00    -0.361 OA
ATOM     33  H   UNL d   1      -2.786  30.770  28.719  0.00  0.00     0.217 HD
ENDBRANCH  29  32
ENDBRANCH   4  26
BRANCH   8  34
ATOM     34  O   UNL d   1      -2.100  25.491  22.939  0.00  0.00    -0.360 OA
ATOM     35  H   UNL d   1      -2.484  25.082  22.674  0.00  0.00     0.217 HD
ENDBRANCH   8  34
BRANCH  11  36
ATOM     36  O   UNL d   1      -2.313  28.208  20.679  0.00  0.00    -0.361 OA
ATOM     37  H   UNL d   1      -2.566  28.760  20.557  0.00  0.00     0.217 HD
ENDBRANCH  11  36
TORSDOF 9
ENDMDL
