MODEL 1
REMARK VINA RESULT:    -7.051      0.000      0.000
REMARK INTER + INTRA:          -4.927
REMARK INTER:                  -8.442
REMARK INTRA:                   3.514
REMARK UNBOUND:                 3.566
REMARK  6 active torsions:
REMARK  status: ('A' for Active; 'I' for Inactive)
REMARK    1  A    between atoms: O_2  and  C_7 
REMARK    2  A    between atoms: O_3  and  C_13 
REMARK    3  A    between atoms: O_4  and  C_18 
REMARK    4  A    between atoms: O_5  and  C_19 
REMARK    5  A    between atoms: O_6  and  C_21 
REMARK    6  A    between atoms: C_8  and  C_12 
ROOT
ATOM      1  O   UNL d   1      23.810   6.472  33.499  0.00  0.00    -0.338 OA
ATOM      2  C   UNL d   1      24.605   6.788  35.005  0.00  0.00     0.156 A 
ATOM      3  C   UNL d   1      23.771   6.766  34.454  0.00  0.00     0.191 A 
ATOM      4  C   UNL d   1      25.479   6.515  34.601  0.00  0.00     0.079 A 
ATOM      5  C   UNL d   1      25.518   6.221  33.646  0.00  0.00     0.011 A 
ATOM      6  C   UNL d   1      24.684   6.199  33.095  0.00  0.00     0.081 A 
ATOM      7  C   UNL d   1      26.434   5.939  33.239  0.00  0.00     0.077 A 
ATOM      8  C   UNL d   1      24.708   5.895  32.099  0.00  0.00     0.074 A 
ATOM      9  C   UNL d   1      26.482   5.632  32.245  0.00  0.00     0.073 A 
ATOM     10  C   UNL d   1      25.614   5.610  31.672  0.00  0.00     0.071 A 
ENDROOT
BRANCH   3  11
ATOM     11  C   UNL d   1      22.898   7.039  34.858  0.00  0.00    -0.024 A 
ATOM     12  C   UNL d   1      22.398   6.403  35.444  0.00  0.00     0.049 A 
ATOM     13  C   UNL d   1      21.525   6.675  35.848  0.00  0.00     0.099 A 
ATOM     14  C   UNL d   1      21.152   7.585  35.665  0.00  0.00     0.098 A 
ATOM     15  C   UNL d   1      21.652   8.222  35.078  0.00  0.00     0.040 A 
ATOM     16  C   UNL d   1      22.525   7.949  34.675  0.00  0.00     0.013 A 
BRANCH  13  17
ATOM     17  O   UNL d   1      21.024   6.039  36.435  0.00  0.00    -0.358 OA
ATOM     18  H   UNL d   1      21.190   5.442  36.457  0.00  0.00     0.217 HD
ENDBRANCH  13  17
BRANCH  14  19
ATOM     19  O   UNL d   1      20.279   7.858  36.069  0.00  0.00    -0.358 OA
ATOM     20  H   UNL d   1      20.262   8.302  36.501  0.00  0.00     0.217 HD
ENDBRANCH  14  19
ENDBRANCH   3  11
BRANCH   2  21
ATOM     21  O   UNL d   1      24.566   7.082  35.960  0.00  0.00    -0.392 OA
ATOM     22  H   UNL d   1      24.434   6.672  36.406  0.00  0.00     0.210 HD
ENDBRANCH   2  21
BRANCH   7  23
ATOM     23  O   UNL d   1      27.262   5.964  33.800  0.00  0.00    -0.360 OA
ATOM     24  H   UNL d   1      27.724   6.349  33.652  0.00  0.00     0.217 HD
ENDBRANCH   7  23
BRANCH  10  25
ATOM     25  O   UNL d   1      25.650   5.316  30.717  0.00  0.00    -0.361 OA
ATOM     26  H   UNL d   1      25.864   5.701  30.281  0.00  0.00     0.217 HD
ENDBRANCH  10  25
TORSDOF 6
ENDMDL
MODEL 2
REMARK VINA RESULT:    -6.929      2.957      4.141
REMARK INTER + INTRA:          -4.780
REMARK INTER:                  -8.258
REMARK INTRA:                   3.478
REMARK UNBOUND:                 3.566
REMARK  6 active torsions:
REMARK  status: ('A' for Active; 'I' for Inactive)
REMARK    1  A    between atoms: O_2  and  C_7 
REMARK    2  A    between atoms: O_3  and  C_13 
REMARK    3  A    between atoms: O_4  and  C_18 
REMARK    4  A    between atoms: O_5  and  C_19 
REMARK    5  A    between atoms: O_6  and  C_21 
REMARK    6  A    between atoms: C_8  and  C_12 
ROOT
ATOM      1  O   UNL d   1      26.937   4.790  31.691  0.00  0.00    -0.338 OA
ATOM      2  C   UNL d   1      26.890   5.302  33.345  0.00  0.00     0.156 A 
ATOM      3  C   UNL d   1      26.457   5.236  32.446  0.00  0.00     0.191 A 
ATOM      4  C   UNL d   1      27.804   4.921  33.488  0.00  0.00     0.079 A 
ATOM      5  C   UNL d   1      28.284   4.475  32.733  0.00  0.00     0.011 A 
ATOM      6  C   UNL d   1      27.851   4.410  31.834  0.00  0.00     0.081 A 
ATOM      7  C   UNL d   1      29.235   4.084  32.898  0.00  0.00     0.077 A 
ATOM      8  C   UNL d   1      28.338   3.948  31.038  0.00  0.00     0.074 A 
ATOM      9  C   UNL d   1      29.741   3.617  32.116  0.00  0.00     0.073 A 
ATOM     10  C   UNL d   1      29.290   3.549  31.180  0.00  0.00     0.071 A 
ENDROOT
BRANCH   3  11
ATOM     11  C   UNL d   1      25.543   5.617  32.302  0.00  0.00    -0.024 A 
ATOM     12  C   UNL d   1      25.433   6.592  32.110  0.00  0.00     0.049 A 
ATOM     13  C   UNL d   1      24.519   6.972  31.967  0.00  0.00     0.099 A 
ATOM     14  C   UNL d   1      23.716   6.378  32.015  0.00  0.00     0.098 A 
ATOM     15  C   UNL d   1      23.827   5.403  32.207  0.00  0.00     0.040 A 
ATOM     16  C   UNL d   1      24.741   5.022  32.351  0.00  0.00     0.013 A 
BRANCH  13  17
ATOM     17  O   UNL d   1      24.408   7.947  31.774  0.00  0.00    -0.358 OA
ATOM     18  H   UNL d   1      24.904   8.320  31.765  0.00  0.00     0.217 HD
ENDBRANCH  13  17
BRANCH  14  19
ATOM     19  O   UNL d   1      22.803   6.758  31.871  0.00  0.00    -0.358 OA
ATOM     20  H   UNL d   1      22.634   7.277  32.165  0.00  0.00     0.217 HD
ENDBRANCH  14  19
ENDBRANCH   3  11
BRANCH   2  21
ATOM     21  O   UNL d   1      26.410   5.748  34.100  0.00  0.00    -0.392 OA
ATOM     22  H   UNL d   1      26.472   5.531  34.678  0.00  0.00     0.210 HD
ENDBRANCH   2  21
BRANCH   7  23
ATOM     23  O   UNL d   1      29.658   4.155  33.801  0.00  0.00    -0.360 OA
ATOM     24  H   UNL d   1      30.096   4.581  33.905  0.00  0.00     0.217 HD
ENDBRANCH   7  23
BRANCH  10  25
ATOM     25  O   UNL d   1      29.767   3.104  30.423  0.00  0.00    -0.361 OA
ATOM     26  H   UNL d   1      29.774   2.486  30.381  0.00  0.00     0.217 HD
ENDBRANCH  10  25
TORSDOF 6
ENDMDL
MODEL 3
REMARK VINA RESULT:    -6.865      1.600      5.309
REMARK INTER + INTRA:          -4.703
REMARK INTER:                  -8.240
REMARK INTRA:                   3.537
REMARK UNBOUND:                 3.566
REMARK  6 active torsions:
REMARK  status: ('A' for Active; 'I' for Inactive)
REMARK    1  A    between atoms: O_2  and  C_7 
REMARK    2  A    between atoms: O_3  and  C_13 
REMARK    3  A    between atoms: O_4  and  C_18 
REMARK    4  A    between atoms: O_5  and  C_19 
REMARK    5  A    between atoms: O_6  and  C_21 
REMARK    6  A    between atoms: C_8  and  C_12 
ROOT
ATOM      1  O   UNL d   1      25.104   6.195  32.524  0.00  0.00    -0.338 OA
ATOM      2  C   UNL d   1      26.137   5.960  33.894  0.00  0.00     0.156 A 
ATOM      3  C   UNL d   1      25.965   5.869  32.913  0.00  0.00     0.191 A 
ATOM      4  C   UNL d   1      25.446   6.376  34.486  0.00  0.00     0.079 A 
ATOM      5  C   UNL d   1      24.585   6.701  34.097  0.00  0.00     0.011 A 
ATOM      6  C   UNL d   1      24.413   6.611  33.116  0.00  0.00     0.081 A 
ATOM      7  C   UNL d   1      23.875   7.133  34.725  0.00  0.00     0.077 A 
ATOM      8  C   UNL d   1      23.521   6.946  32.695  0.00  0.00     0.074 A 
ATOM      9  C   UNL d   1      22.975   7.474  34.327  0.00  0.00     0.073 A 
ATOM     10  C   UNL d   1      22.797   7.380  33.305  0.00  0.00     0.071 A 
ENDROOT
BRANCH   3  11
ATOM     11  C   UNL d   1      26.656   5.453  32.321  0.00  0.00    -0.024 A 
ATOM     12  C   UNL d   1      26.551   4.505  32.021  0.00  0.00     0.049 A 
ATOM     13  C   UNL d   1      27.241   4.089  31.429  0.00  0.00     0.099 A 
ATOM     14  C   UNL d   1      28.036   4.621  31.137  0.00  0.00     0.098 A 
ATOM     15  C   UNL d   1      28.141   5.569  31.438  0.00  0.00     0.040 A 
ATOM     16  C   UNL d   1      27.451   5.985  32.030  0.00  0.00     0.013 A 
BRANCH  13  17
ATOM     17  O   UNL d   1      27.136   3.141  31.128  0.00  0.00    -0.358 OA
ATOM     18  H   UNL d   1      27.626   2.761  31.126  0.00  0.00     0.217 HD
ENDBRANCH  13  17
BRANCH  14  19
ATOM     19  O   UNL d   1      28.726   4.205  30.546  0.00  0.00    -0.358 OA
ATOM     20  H   UNL d   1      29.200   4.545  30.335  0.00  0.00     0.217 HD
ENDBRANCH  14  19
ENDBRANCH   3  11
BRANCH   2  21
ATOM     21  O   UNL d   1      26.998   5.634  34.283  0.00  0.00    -0.392 OA
ATOM     22  H   UNL d   1      27.148   5.776  34.868  0.00  0.00     0.210 HD
ENDBRANCH   2  21
BRANCH   7  23
ATOM     23  O   UNL d   1      24.057   7.218  35.705  0.00  0.00    -0.360 OA
ATOM     24  H   UNL d   1      24.633   7.329  35.904  0.00  0.00     0.217 HD
ENDBRANCH   7  23
BRANCH  10  25
ATOM     25  O   UNL d   1      21.937   7.705  32.913  0.00  0.00    -0.361 OA
ATOM     26  H   UNL d   1      21.827   8.312  32.866  0.00  0.00     0.217 HD
ENDBRANCH  10  25
TORSDOF 6
ENDMDL
MODEL 4
REMARK VINA RESULT:    -6.826      1.205      5.159
REMARK INTER + INTRA:          -4.657
REMARK INTER:                  -8.335
REMARK INTRA:                   3.678
REMARK UNBOUND:                 3.566
REMARK  6 active torsions:
REMARK  status: ('A' for Active; 'I' for Inactive)
REMARK    1  A    between atoms: O_2  and  C_7 
REMARK    2  A    between atoms: O_3  and  C_13 
REMARK    3  A    between atoms: O_4  and  C_18 
REMARK    4  A    between atoms: O_5  and  C_19 
REMARK    5  A    between atoms: O_6  and  C_21 
REMARK    6  A    between atoms: C_8  and  C_12 
ROOT
ATOM      1  O   UNL d   1      22.443   6.092  34.862  0.00  0.00    -0.338 OA
ATOM      2  C   UNL d   1      22.455   7.765  34.416  0.00  0.00     0.156 A 
ATOM      3  C   UNL d   1      22.885   6.862  34.403  0.00  0.00     0.191 A 
ATOM      4  C   UNL d   1      21.584   7.898  34.888  0.00  0.00     0.079 A 
ATOM      5  C   UNL d   1      21.141   7.127  35.346  0.00  0.00     0.011 A 
ATOM      6  C   UNL d   1      21.571   6.224  35.334  0.00  0.00     0.081 A 
ATOM      7  C   UNL d   1      20.234   7.280  35.834  0.00  0.00     0.077 A 
ATOM      8  C   UNL d   1      21.122   5.412  35.807  0.00  0.00     0.074 A 
ATOM      9  C   UNL d   1      19.767   6.482  36.314  0.00  0.00     0.073 A 
ATOM     10  C   UNL d   1      20.214   5.542  36.301  0.00  0.00     0.071 A 
ENDROOT
BRANCH   3  11
ATOM     11  C   UNL d   1      23.757   6.730  33.931  0.00  0.00    -0.024 A 
ATOM     12  C   UNL d   1      24.590   6.562  34.458  0.00  0.00     0.049 A 
ATOM     13  C   UNL d   1      25.461   6.430  33.986  0.00  0.00     0.099 A 
ATOM     14  C   UNL d   1      25.500   6.465  32.988  0.00  0.00     0.098 A 
ATOM     15  C   UNL d   1      24.667   6.633  32.461  0.00  0.00     0.040 A 
ATOM     16  C   UNL d   1      23.795   6.765  32.933  0.00  0.00     0.013 A 
BRANCH  13  17
ATOM     17  O   UNL d   1      26.295   6.262  34.513  0.00  0.00    -0.358 OA
ATOM     18  H   UNL d   1      26.793   6.621  34.427  0.00  0.00     0.217 HD
ENDBRANCH  13  17
BRANCH  14  19
ATOM     19  O   UNL d   1      26.372   6.333  32.516  0.00  0.00    -0.358 OA
ATOM     20  H   UNL d   1      26.767   5.897  32.712  0.00  0.00     0.217 HD
ENDBRANCH  14  19
ENDBRANCH   3  11
BRANCH   2  21
ATOM     21  O   UNL d   1      22.898   8.536  33.957  0.00  0.00    -0.392 OA
ATOM     22  H   UNL d   1      22.930   9.087  34.238  0.00  0.00     0.210 HD
ENDBRANCH   2  21
BRANCH   7  23
ATOM     23  O   UNL d   1      19.814   8.187  35.840  0.00  0.00    -0.360 OA
ATOM     24  H   UNL d   1      20.092   8.656  36.135  0.00  0.00     0.217 HD
ENDBRANCH   7  23
BRANCH  10  25
ATOM     25  O   UNL d   1      19.775   4.769  36.758  0.00  0.00    -0.361 OA
ATOM     26  H   UNL d   1      20.078   4.233  36.822  0.00  0.00     0.217 HD
ENDBRANCH  10  25
TORSDOF 6
ENDMDL
MODEL 5
REMARK VINA RESULT:    -6.563      3.198      6.631
REMARK INTER + INTRA:          -4.339
REMARK INTER:                  -7.842
REMARK INTRA:                   3.503
REMARK UNBOUND:                 3.566
REMARK  6 active torsions:
REMARK  status: ('A' for Active; 'I' for Inactive)
REMARK    1  A    between atoms: O_2  and  C_7 
REMARK    2  A    between atoms: O_3  and  C_13 
REMARK    3  A    between atoms: O_4  and  C_18 
REMARK    4  A    between atoms: O_5  and  C_19 
REMARK    5  A    between atoms: O_6  and  C_21 
REMARK    6  A    between atoms: C_8  and  C_12 
ROOT
ATOM      1  O   UNL d   1      26.700   4.150  31.888  0.00  0.00    -0.338 OA
ATOM      2  C   UNL d   1      27.528   5.656  32.101  0.00  0.00     0.156 A 
ATOM      3  C   UNL d   1      27.553   4.670  31.941  0.00  0.00     0.191 A 
ATOM      4  C   UNL d   1      26.651   6.124  32.209  0.00  0.00     0.079 A 
ATOM      5  C   UNL d   1      25.798   5.605  32.157  0.00  0.00     0.011 A 
ATOM      6  C   UNL d   1      25.822   4.618  31.996  0.00  0.00     0.081 A 
ATOM      7  C   UNL d   1      24.892   6.105  32.271  0.00  0.00     0.077 A 
ATOM      8  C   UNL d   1      24.942   4.064  31.939  0.00  0.00     0.074 A 
ATOM      9  C   UNL d   1      23.999   5.571  32.218  0.00  0.00     0.073 A 
ATOM     10  C   UNL d   1      24.025   4.544  32.051  0.00  0.00     0.071 A 
ENDROOT
BRANCH   3  11
ATOM     11  C   UNL d   1      28.430   4.202  31.833  0.00  0.00    -0.024 A 
ATOM     12  C   UNL d   1      28.779   3.998  30.918  0.00  0.00     0.049 A 
ATOM     13  C   UNL d   1      29.656   3.531  30.810  0.00  0.00     0.099 A 
ATOM     14  C   UNL d   1      30.185   3.267  31.617  0.00  0.00     0.098 A 
ATOM     15  C   UNL d   1      29.836   3.470  32.532  0.00  0.00     0.040 A 
ATOM     16  C   UNL d   1      28.958   3.938  32.640  0.00  0.00     0.013 A 
BRANCH  13  17
ATOM     17  O   UNL d   1      30.005   3.327  29.895  0.00  0.00    -0.358 OA
ATOM     18  H   UNL d   1      30.111   3.788  29.495  0.00  0.00     0.217 HD
ENDBRANCH  13  17
BRANCH  14  19
ATOM     19  O   UNL d   1      31.062   2.799  31.509  0.00  0.00    -0.358 OA
ATOM     20  H   UNL d   1      31.556   2.988  31.833  0.00  0.00     0.217 HD
ENDBRANCH  14  19
ENDBRANCH   3  11
BRANCH   2  21
ATOM     21  O   UNL d   1      28.381   6.176  32.154  0.00  0.00    -0.392 OA
ATOM     22  H   UNL d   1      28.732   6.247  31.648  0.00  0.00     0.210 HD
ENDBRANCH   2  21
BRANCH   7  23
ATOM     23  O   UNL d   1      24.880   7.092  32.431  0.00  0.00    -0.360 OA
ATOM     24  H   UNL d   1      24.411   7.435  32.215  0.00  0.00     0.217 HD
ENDBRANCH   7  23
BRANCH  10  25
ATOM     25  O   UNL d   1      23.174   4.022  31.998  0.00  0.00    -0.361 OA
ATOM     26  H   UNL d   1      22.977   3.802  31.453  0.00  0.00     0.217 HD
ENDBRANCH  10  25
TORSDOF 6
ENDMDL
