MODEL 1
REMARK VINA RESULT:     0.000      0.000      0.000
REMARK INTER + INTRA:           1.304
REMARK INTER:                   0.000
REMARK INTRA:                   1.304
REMARK UNBOUND:                 1.304
REMARK  6 active torsions:
REMARK  status: ('A' for Active; 'I' for Inactive)
REMARK    1  A    between atoms: C_22  and  O_1 
REMARK    2  A    between atoms: C_24  and  O_2 
REMARK    3  A    between atoms: O_3  and  C_30 
REMARK    4  A    between atoms: O_4  and  C_33 
REMARK    5  A    between atoms: C_14  and  C_30 
REMARK    6  A    between atoms: C_19  and  C_33 
ROOT
ATOM      1  C   UNL d   1       4.365  21.688  -6.457  0.00  0.00    -0.028 A 
ATOM      2  C   UNL d   1       4.434  20.692  -6.510  0.00  0.00     0.007 A 
ATOM      3  C   UNL d   1       4.762  20.224  -7.382  0.00  0.00    -0.033 A 
ATOM      4  C   UNL d   1       4.049  22.123  -5.614  0.00  0.00    -0.013 A 
ATOM      5  C   UNL d   1       5.021  20.802  -8.208  0.00  0.00     0.007 A 
ATOM      6  C   UNL d   1       4.619  22.285  -7.271  0.00  0.00     0.011 A 
ATOM      7  C   UNL d   1       3.802  21.562  -4.824  0.00  0.00    -0.069 A 
ATOM      8  C   UNL d   1       4.949  21.840  -8.153  0.00  0.00     0.007 A 
ATOM      9  C   UNL d   1       5.365  20.337  -9.127  0.00  0.00     0.010 A 
ATOM     10  C   UNL d   1       3.471  22.000  -3.939  0.00  0.00     0.038 A 
ATOM     11  C   UNL d   1       4.187  20.131  -5.720  0.00  0.00     0.033 A 
ATOM     12  C   UNL d   1       4.829  19.142  -7.416  0.00  0.00     0.044 A 
ATOM     13  C   UNL d   1       3.983  23.162  -5.574  0.00  0.00     0.016 A 
ATOM     14  C   UNL d   1       3.397  23.037  -3.876  0.00  0.00     0.053 A 
ATOM     15  C   UNL d   1       4.412  22.649  -6.730  0.00  0.00     0.016 C 
ATOM     16  C   UNL d   1       3.654  23.622  -4.700  0.00  0.00     0.022 A 
ATOM     17  C   UNL d   1       5.440  19.257  -9.185  0.00  0.00     0.157 A 
ATOM     18  C   UNL d   1       3.871  20.566  -4.877  0.00  0.00    -0.022 A 
ATOM     19  C   UNL d   1       5.170  18.655  -8.324  0.00  0.00     0.148 A 
ATOM     20  C   UNL d   1       4.513  19.670  -6.588  0.00  0.00     0.016 C 
ATOM     21  C   UNL d   1       4.206  22.933  -6.180  0.00  0.00     0.021 C 
ATOM     22  C   UNL d   1       3.209  21.371  -3.096  0.00  0.00    -0.005 A 
ATOM     23  C   UNL d   1       3.055  23.517  -2.965  0.00  0.00     0.021 A 
ATOM     24  C   UNL d   1       2.864  21.828  -2.174  0.00  0.00    -0.014 A 
ATOM     25  C   UNL d   1       5.466  21.238  -9.549  0.00  0.00     0.020 C 
ATOM     26  C   UNL d   1       2.787  22.908  -2.108  0.00  0.00     0.006 A 
ATOM     27  C   UNL d   1       3.284  20.376  -3.167  0.00  0.00     0.011 C 
ATOM     28  C   UNL d   1       2.620  21.257  -1.390  0.00  0.00     0.010 C 
ENDROOT
BRANCH   9  29
ATOM     29  C   UNL d   1       5.690  20.414 -10.069  0.00  0.00     0.176 C 
BRANCH  29  30
ATOM     30  O   UNL d   1       6.052  21.284 -10.404  0.00  0.00    -0.400 OA
ATOM     31  H   UNL d   1       5.666  21.750 -10.537  0.00  0.00     0.209 HD
ENDBRANCH  29  30
ENDBRANCH   9  29
BRANCH  17  32
ATOM     32  O   UNL d   1       5.756  18.818 -10.026  0.00  0.00    -0.392 OA
ATOM     33  H   UNL d   1       5.573  18.241 -10.163  0.00  0.00     0.210 HD
ENDBRANCH  17  32
BRANCH  19  34
ATOM     34  O   UNL d   1       5.235  17.658  -8.366  0.00  0.00    -0.393 OA
ATOM     35  H   UNL d   1       4.974  17.311  -7.923  0.00  0.00     0.210 HD
ENDBRANCH  19  34
BRANCH  14  36
ATOM     36  C   UNL d   1       3.325  24.033  -3.816  0.00  0.00     0.149 C 
ATOM     37  O   UNL d   1       4.107  24.571  -3.500  0.00  0.00    -0.649 OA
BRANCH  36  38
ATOM     38  O   UNL d   1       2.473  24.490  -4.070  0.00  0.00    -0.776 OA
ATOM     39  H   UNL d   1       2.050  24.620  -3.637  0.00  0.00     0.167 HD
ENDBRANCH  36  38
ENDBRANCH  14  36
TORSDOF 6
ENDMDL
MODEL 2
REMARK VINA RESULT:     0.000     29.179     31.093
REMARK INTER + INTRA:           1.304
REMARK INTER:                   0.000
REMARK INTRA:                   1.304
REMARK UNBOUND:                 1.304
REMARK  6 active torsions:
REMARK  status: ('A' for Active; 'I' for Inactive)
REMARK    1  A    between atoms: C_22  and  O_1 
REMARK    2  A    between atoms: C_24  and  O_2 
REMARK    3  A    between atoms: O_3  and  C_30 
REMARK    4  A    between atoms: O_4  and  C_33 
REMARK    5  A    between atoms: C_14  and  C_30 
REMARK    6  A    between atoms: C_19  and  C_33 
ROOT
ATOM      1  C   UNL d   1     -17.636   3.407 -16.300  0.00  0.00    -0.028 A 
ATOM      2  C   UNL d   1     -18.476   2.895 -16.118  0.00  0.00     0.007 A 
ATOM      3  C   UNL d   1     -19.125   3.185 -15.357  0.00  0.00    -0.033 A 
ATOM      4  C   UNL d   1     -17.023   3.117 -17.034  0.00  0.00    -0.013 A 
ATOM      5  C   UNL d   1     -18.896   4.019 -14.777  0.00  0.00     0.007 A 
ATOM      6  C   UNL d   1     -17.388   4.244 -15.733  0.00  0.00     0.011 A 
ATOM      7  C   UNL d   1     -17.249   2.315 -17.587  0.00  0.00    -0.069 A 
ATOM      8  C   UNL d   1     -18.022   4.553 -14.966  0.00  0.00     0.007 A 
ATOM      9  C   UNL d   1     -19.557   4.340 -13.978  0.00  0.00     0.010 A 
ATOM     10  C   UNL d   1     -16.620   2.001 -18.356  0.00  0.00     0.038 A 
ATOM     11  C   UNL d   1     -18.702   2.093 -16.671  0.00  0.00     0.033 A 
ATOM     12  C   UNL d   1     -20.030   2.614 -15.178  0.00  0.00     0.044 A 
ATOM     13  C   UNL d   1     -16.152   3.661 -17.211  0.00  0.00     0.016 A 
ATOM     14  C   UNL d   1     -15.743   2.529 -18.551  0.00  0.00     0.053 A 
ATOM     15  C   UNL d   1     -16.924   4.104 -16.217  0.00  0.00     0.016 C 
ATOM     16  C   UNL d   1     -15.508   3.365 -17.975  0.00  0.00     0.022 A 
ATOM     17  C   UNL d   1     -20.467   3.785 -13.781  0.00  0.00     0.157 A 
ATOM     18  C   UNL d   1     -18.088   1.803 -17.406  0.00  0.00    -0.022 A 
ATOM     19  C   UNL d   1     -20.706   2.916 -14.385  0.00  0.00     0.148 A 
ATOM     20  C   UNL d   1     -19.344   2.384 -15.914  0.00  0.00     0.016 C 
ATOM     21  C   UNL d   1     -16.523   3.915 -16.696  0.00  0.00     0.021 C 
ATOM     22  C   UNL d   1     -16.886   1.128 -18.942  0.00  0.00    -0.005 A 
ATOM     23  C   UNL d   1     -15.072   2.221 -19.346  0.00  0.00     0.021 A 
ATOM     24  C   UNL d   1     -16.231   0.801 -19.742  0.00  0.00    -0.014 A 
ATOM     25  C   UNL d   1     -18.939   5.098 -13.767  0.00  0.00     0.020 C 
ATOM     26  C   UNL d   1     -15.318   1.351 -19.946  0.00  0.00     0.006 A 
ATOM     27  C   UNL d   1     -17.730   0.628 -18.746  0.00  0.00     0.011 C 
ATOM     28  C   UNL d   1     -16.467  -0.003 -20.289  0.00  0.00     0.010 C 
ENDROOT
BRANCH   9  29
ATOM     29  C   UNL d   1     -19.777   4.973 -13.236  0.00  0.00     0.176 C 
BRANCH  29  30
ATOM     30  O   UNL d   1     -19.333   5.867 -13.192  0.00  0.00    -0.400 OA
ATOM     31  H   UNL d   1     -18.889   5.973 -12.772  0.00  0.00     0.209 HD
ENDBRANCH  29  30
ENDBRANCH   9  29
BRANCH  17  32
ATOM     32  O   UNL d   1     -21.084   4.072 -13.048  0.00  0.00    -0.392 OA
ATOM     33  H   UNL d   1     -21.176   4.675 -12.938  0.00  0.00     0.210 HD
ENDBRANCH  17  32
BRANCH  19  34
ATOM     34  O   UNL d   1     -21.543   2.397 -14.212  0.00  0.00    -0.393 OA
ATOM     35  H   UNL d   1     -22.092   2.628 -14.383  0.00  0.00     0.210 HD
ENDBRANCH  19  34
BRANCH  14  36
ATOM     36  C   UNL d   1     -14.902   3.036 -18.738  0.00  0.00     0.149 C 
ATOM     37  O   UNL d   1     -14.911   3.794 -19.390  0.00  0.00    -0.649 OA
BRANCH  36  38
ATOM     38  O   UNL d   1     -14.053   2.785 -18.275  0.00  0.00    -0.776 OA
ATOM     39  H   UNL d   1     -14.040   2.734 -17.657  0.00  0.00     0.167 HD
ENDBRANCH  36  38
ENDBRANCH  14  36
TORSDOF 6
ENDMDL
MODEL 3
REMARK VINA RESULT:     0.000     22.318     25.618
REMARK INTER + INTRA:           1.304
REMARK INTER:                   0.000
REMARK INTRA:                   1.304
REMARK UNBOUND:                 1.304
REMARK  6 active torsions:
REMARK  status: ('A' for Active; 'I' for Inactive)
REMARK    1  A    between atoms: C_22  and  O_1 
REMARK    2  A    between atoms: C_24  and  O_2 
REMARK    3  A    between atoms: O_3  and  C_30 
REMARK    4  A    between atoms: O_4  and  C_33 
REMARK    5  A    between atoms: C_14  and  C_30 
REMARK    6  A    between atoms: C_19  and  C_33 
ROOT
ATOM      1  C   UNL d   1      -2.466   3.656 -23.519  0.00  0.00    -0.028 A 
ATOM      2  C   UNL d   1      -3.306   4.192 -23.599  0.00  0.00     0.007 A 
ATOM      3  C   UNL d   1      -3.885   4.154 -24.464  0.00  0.00    -0.033 A 
ATOM      4  C   UNL d   1      -1.921   3.703 -22.682  0.00  0.00    -0.013 A 
ATOM      5  C   UNL d   1      -3.584   3.548 -25.256  0.00  0.00     0.007 A 
ATOM      6  C   UNL d   1      -2.147   3.044 -24.298  0.00  0.00     0.011 A 
ATOM      7  C   UNL d   1      -2.215   4.286 -21.925  0.00  0.00    -0.069 A 
ATOM      8  C   UNL d   1      -2.709   2.989 -25.173  0.00  0.00     0.007 A 
ATOM      9  C   UNL d   1      -4.171   3.492 -26.168  0.00  0.00     0.010 A 
ATOM     10  C   UNL d   1      -1.658   4.346 -21.047  0.00  0.00     0.038 A 
ATOM     11  C   UNL d   1      -3.601   4.776 -22.842  0.00  0.00     0.033 A 
ATOM     12  C   UNL d   1      -4.792   4.745 -24.528  0.00  0.00     0.044 A 
ATOM     13  C   UNL d   1      -1.048   3.138 -22.613  0.00  0.00     0.016 A 
ATOM     14  C   UNL d   1      -0.782   3.790 -20.956  0.00  0.00     0.053 A 
ATOM     15  C   UNL d   1      -1.726   3.027 -23.758  0.00  0.00     0.016 C 
ATOM     16  C   UNL d   1      -0.475   3.182 -21.745  0.00  0.00     0.022 A 
ATOM     17  C   UNL d   1      -5.082   4.074 -26.255  0.00  0.00     0.157 A 
ATOM     18  C   UNL d   1      -3.055   4.823 -22.005  0.00  0.00    -0.022 A 
ATOM     19  C   UNL d   1      -5.395   4.705 -25.430  0.00  0.00     0.148 A 
ATOM     20  C   UNL d   1      -4.173   4.735 -23.703  0.00  0.00     0.016 C 
ATOM     21  C   UNL d   1      -1.370   3.057 -23.212  0.00  0.00     0.021 C 
ATOM     22  C   UNL d   1      -1.997   4.985 -20.240  0.00  0.00    -0.005 A 
ATOM     23  C   UNL d   1      -0.184   3.835 -20.052  0.00  0.00     0.021 A 
ATOM     24  C   UNL d   1      -1.417   5.047 -19.325  0.00  0.00    -0.014 A 
ATOM     25  C   UNL d   1      -3.513   2.845 -26.555  0.00  0.00     0.020 C 
ATOM     26  C   UNL d   1      -0.504   4.468 -19.231  0.00  0.00     0.006 A 
ATOM     27  C   UNL d   1      -2.841   5.516 -20.337  0.00  0.00     0.011 C 
ATOM     28  C   UNL d   1      -1.721   5.634 -18.575  0.00  0.00     0.010 C 
ENDROOT
BRANCH   9  29
ATOM     29  C   UNL d   1      -4.312   3.126 -27.087  0.00  0.00     0.176 C 
BRANCH  29  30
ATOM     30  O   UNL d   1      -3.835   2.295 -27.374  0.00  0.00    -0.400 OA
ATOM     31  H   UNL d   1      -4.060   1.954 -27.840  0.00  0.00     0.209 HD
ENDBRANCH  29  30
ENDBRANCH   9  29
BRANCH  17  32
ATOM     32  O   UNL d   1      -5.630   4.029 -27.090  0.00  0.00    -0.392 OA
ATOM     33  H   UNL d   1      -5.656   4.518 -27.471  0.00  0.00     0.210 HD
ENDBRANCH  17  32
BRANCH  19  34
ATOM     34  O   UNL d   1      -6.233   5.245 -25.499  0.00  0.00    -0.393 OA
ATOM     35  H   UNL d   1      -6.333   5.715 -25.106  0.00  0.00     0.210 HD
ENDBRANCH  19  34
BRANCH  14  36
ATOM     36  C   UNL d   1       0.059   3.256 -20.869  0.00  0.00     0.149 C 
ATOM     37  O   UNL d   1       0.026   2.330 -20.492  0.00  0.00    -0.649 OA
BRANCH  36  38
ATOM     38  O   UNL d   1       0.933   3.648 -21.157  0.00  0.00    -0.776 OA
ATOM     39  H   UNL d   1       1.197   4.096 -20.821  0.00  0.00     0.167 HD
ENDBRANCH  36  38
ENDBRANCH  14  36
TORSDOF 6
ENDMDL
MODEL 4
REMARK VINA RESULT:     0.000     50.016     52.816
REMARK INTER + INTRA:           1.304
REMARK INTER:                   0.000
REMARK INTRA:                   1.304
REMARK UNBOUND:                 1.304
REMARK  6 active torsions:
REMARK  status: ('A' for Active; 'I' for Inactive)
REMARK    1  A    between atoms: C_22  and  O_1 
REMARK    2  A    between atoms: C_24  and  O_2 
REMARK    3  A    between atoms: O_3  and  C_30 
REMARK    4  A    between atoms: O_4  and  C_33 
REMARK    5  A    between atoms: C_14  and  C_30 
REMARK    6  A    between atoms: C_19  and  C_33 
ROOT
ATOM      1  C   UNL d   1      38.707 -12.587 -25.909  0.00  0.00    -0.028 A 
ATOM      2  C   UNL d   1      38.437 -11.993 -26.667  0.00  0.00     0.007 A 
ATOM      3  C   UNL d   1      38.531 -10.958 -26.595  0.00  0.00    -0.033 A 
ATOM      4  C   UNL d   1      38.611 -13.579 -25.992  0.00  0.00    -0.013 A 
ATOM      5  C   UNL d   1      38.910 -10.536 -25.723  0.00  0.00     0.007 A 
ATOM      6  C   UNL d   1      39.089 -12.187 -25.027  0.00  0.00     0.011 A 
ATOM      7  C   UNL d   1      38.246 -13.977 -26.834  0.00  0.00    -0.069 A 
ATOM      8  C   UNL d   1      39.192 -11.155 -24.933  0.00  0.00     0.007 A 
ATOM      9  C   UNL d   1      39.017  -9.461 -25.625  0.00  0.00     0.010 A 
ATOM     10  C   UNL d   1      38.140 -15.009 -26.935  0.00  0.00     0.038 A 
ATOM     11  C   UNL d   1      38.072 -12.392 -27.509  0.00  0.00     0.033 A 
ATOM     12  C   UNL d   1      38.232 -10.334 -27.431  0.00  0.00     0.044 A 
ATOM     13  C   UNL d   1      38.897 -14.184 -25.194  0.00  0.00     0.016 A 
ATOM     14  C   UNL d   1      38.419 -15.633 -26.150  0.00  0.00     0.053 A 
ATOM     15  C   UNL d   1      39.051 -12.870 -25.014  0.00  0.00     0.016 C 
ATOM     16  C   UNL d   1      38.800 -15.218 -25.273  0.00  0.00     0.022 A 
ATOM     17  C   UNL d   1      38.725  -8.817 -26.447  0.00  0.00     0.157 A 
ATOM     18  C   UNL d   1      37.976 -13.384 -27.592  0.00  0.00    -0.022 A 
ATOM     19  C   UNL d   1      38.329  -9.256 -27.356  0.00  0.00     0.148 A 
ATOM     20  C   UNL d   1      38.166 -11.364 -27.434  0.00  0.00     0.016 C 
ATOM     21  C   UNL d   1      38.989 -13.518 -25.068  0.00  0.00     0.021 C 
ATOM     22  C   UNL d   1      37.742 -15.418 -27.857  0.00  0.00    -0.005 A 
ATOM     23  C   UNL d   1      38.319 -16.711 -26.232  0.00  0.00     0.021 A 
ATOM     24  C   UNL d   1      37.632 -16.492 -27.963  0.00  0.00    -0.014 A 
ATOM     25  C   UNL d   1      39.384  -9.578 -24.701  0.00  0.00     0.020 C 
ATOM     26  C   UNL d   1      37.922 -17.143 -27.145  0.00  0.00     0.006 A 
ATOM     27  C   UNL d   1      37.477 -14.808 -28.606  0.00  0.00     0.011 C 
ATOM     28  C   UNL d   1      37.265 -16.879 -28.809  0.00  0.00     0.010 C 
ENDROOT
BRANCH   9  29
ATOM     29  C   UNL d   1      39.285  -8.661 -25.088  0.00  0.00     0.176 C 
BRANCH  29  30
ATOM     30  O   UNL d   1      39.892  -8.766 -24.301  0.00  0.00    -0.400 OA
ATOM     31  H   UNL d   1      40.449  -9.029 -24.372  0.00  0.00     0.209 HD
ENDBRANCH  29  30
ENDBRANCH   9  29
BRANCH  17  32
ATOM     32  O   UNL d   1      38.819  -7.825 -26.368  0.00  0.00    -0.392 OA
ATOM     33  H   UNL d   1      38.468  -7.451 -26.716  0.00  0.00     0.210 HD
ENDBRANCH  17  32
BRANCH  19  34
ATOM     34  O   UNL d   1      38.057  -8.672 -28.121  0.00  0.00    -0.393 OA
ATOM     35  H   UNL d   1      37.498  -8.403 -28.121  0.00  0.00     0.210 HD
ENDBRANCH  19  34
BRANCH  14  36
ATOM     36  C   UNL d   1      38.687 -16.233 -25.396  0.00  0.00     0.149 C 
ATOM     37  O   UNL d   1      39.622 -16.583 -25.344  0.00  0.00    -0.649 OA
BRANCH  36  38
ATOM     38  O   UNL d   1      38.020 -16.483 -24.694  0.00  0.00    -0.776 OA
ATOM     39  H   UNL d   1      37.761 -16.044 -24.342  0.00  0.00     0.167 HD
ENDBRANCH  36  38
ENDBRANCH  14  36
TORSDOF 6
ENDMDL
MODEL 5
REMARK VINA RESULT:     0.000     35.649     37.681
REMARK INTER + INTRA:           1.304
REMARK INTER:                   0.000
REMARK INTRA:                   1.304
REMARK UNBOUND:                 1.304
REMARK  6 active torsions:
REMARK  status: ('A' for Active; 'I' for Inactive)
REMARK    1  A    between atoms: C_22  and  O_1 
REMARK    2  A    between atoms: C_24  and  O_2 
REMARK    3  A    between atoms: O_3  and  C_30 
REMARK    4  A    between atoms: O_4  and  C_33 
REMARK    5  A    between atoms: C_14  and  C_30 
REMARK    6  A    between atoms: C_19  and  C_33 
ROOT
ATOM      1  C   UNL d   1      -5.223  -5.530 -30.938  0.00  0.00    -0.028 A 
ATOM      2  C   UNL d   1      -4.354  -5.892 -30.600  0.00  0.00     0.007 A 
ATOM      3  C   UNL d   1      -3.567  -6.091 -31.253  0.00  0.00    -0.033 A 
ATOM      4  C   UNL d   1      -5.969  -5.343 -30.300  0.00  0.00    -0.013 A 
ATOM      5  C   UNL d   1      -3.687  -5.912 -32.271  0.00  0.00     0.007 A 
ATOM      6  C   UNL d   1      -5.365  -5.343 -31.953  0.00  0.00     0.011 A 
ATOM      7  C   UNL d   1      -5.847  -5.517 -29.323  0.00  0.00    -0.069 A 
ATOM      8  C   UNL d   1      -4.592  -5.536 -32.624  0.00  0.00     0.007 A 
ATOM      9  C   UNL d   1      -2.881  -6.113 -32.971  0.00  0.00     0.010 A 
ATOM     10  C   UNL d   1      -6.616  -5.328 -28.646  0.00  0.00     0.038 A 
ATOM     11  C   UNL d   1      -4.232  -6.066 -29.623  0.00  0.00     0.033 A 
ATOM     12  C   UNL d   1      -2.634  -6.483 -30.862  0.00  0.00     0.044 A 
ATOM     13  C   UNL d   1      -6.868  -4.966 -30.668  0.00  0.00     0.016 A 
ATOM     14  C   UNL d   1      -7.523  -4.951 -28.991  0.00  0.00     0.053 A 
ATOM     15  C   UNL d   1      -5.916  -5.193 -31.576  0.00  0.00     0.016 C 
ATOM     16  C   UNL d   1      -7.650  -4.769 -30.009  0.00  0.00     0.022 A 
ATOM     17  C   UNL d   1      -1.939  -6.505 -32.604  0.00  0.00     0.157 A 
ATOM     18  C   UNL d   1      -4.979  -5.879 -28.984  0.00  0.00    -0.022 A 
ATOM     19  C   UNL d   1      -1.814  -6.691 -31.542  0.00  0.00     0.148 A 
ATOM     20  C   UNL d   1      -3.453  -6.263 -30.274  0.00  0.00     0.016 C 
ATOM     21  C   UNL d   1      -6.403  -5.071 -31.159  0.00  0.00     0.021 C 
ATOM     22  C   UNL d   1      -6.460  -5.525 -27.591  0.00  0.00    -0.005 A 
ATOM     23  C   UNL d   1      -8.338  -4.745 -28.305  0.00  0.00     0.021 A 
ATOM     24  C   UNL d   1      -7.260  -5.327 -26.885  0.00  0.00    -0.014 A 
ATOM     25  C   UNL d   1      -3.457  -5.802 -33.728  0.00  0.00     0.020 C 
ATOM     26  C   UNL d   1      -8.206  -4.935 -27.245  0.00  0.00     0.006 A 
ATOM     27  C   UNL d   1      -5.584  -5.887 -27.269  0.00  0.00     0.011 C 
ATOM     28  C   UNL d   1      -7.127  -5.505 -25.910  0.00  0.00     0.010 C 
ENDROOT
BRANCH   9  29
ATOM     29  C   UNL d   1      -2.524  -6.118 -33.904  0.00  0.00     0.176 C 
BRANCH  29  30
ATOM     30  O   UNL d   1      -3.153  -6.079 -34.681  0.00  0.00    -0.400 OA
ATOM     31  H   UNL d   1      -2.979  -6.301 -35.233  0.00  0.00     0.209 HD
ENDBRANCH  29  30
ENDBRANCH   9  29
BRANCH  17  32
ATOM     32  O   UNL d   1      -1.190  -6.693 -33.238  0.00  0.00    -0.392 OA
ATOM     33  H   UNL d   1      -1.294  -6.693 -33.850  0.00  0.00     0.210 HD
ENDBRANCH  17  32
BRANCH  19  34
ATOM     34  O   UNL d   1      -0.950  -7.053 -31.193  0.00  0.00    -0.393 OA
ATOM     35  H   UNL d   1      -0.634  -7.474 -31.521  0.00  0.00     0.210 HD
ENDBRANCH  19  34
BRANCH  14  36
ATOM     36  C   UNL d   1      -8.395  -4.589 -29.322  0.00  0.00     0.149 C 
ATOM     37  O   UNL d   1      -8.536  -3.601 -29.379  0.00  0.00    -0.649 OA
BRANCH  36  38
ATOM     38  O   UNL d   1      -9.125  -5.215 -29.595  0.00  0.00    -0.776 OA
ATOM     39  H   UNL d   1      -9.633  -4.996 -29.875  0.00  0.00     0.167 HD
ENDBRANCH  36  38
ENDBRANCH  14  36
TORSDOF 6
ENDMDL
