MODEL 1
REMARK VINA RESULT:    -9.270      0.000      0.000
REMARK INTER + INTRA:          -3.679
REMARK INTER:                 -12.528
REMARK INTRA:                   8.849
REMARK UNBOUND:                 8.843
REMARK  9 active torsions:
REMARK  status: ('A' for Active; 'I' for Inactive)
REMARK    1  A    between atoms: O_3  and  C_17 
REMARK    2  A    between atoms: O_4  and  C_18 
REMARK    3  A    between atoms: O_5  and  C_19 
REMARK    4  A    between atoms: O_7  and  C_32 
REMARK    5  A    between atoms: O_9  and  C_36 
REMARK    6  A    between atoms: O_10  and  C_40 
REMARK    7  A    between atoms: C_11  and  C_13 
REMARK    8  A    between atoms: C_15  and  C_20 
REMARK    9  A    between atoms: C_22  and  C_29 
ROOT
ATOM      1  O   UNL d   1      18.806  33.881  18.727  0.00  0.00    -0.308 OA
ATOM      2  O   UNL d   1      18.956  30.968  19.680  0.00  0.00    -0.287 OA
ATOM      3  C   UNL d   1      19.436  33.359  17.168  0.00  0.00     0.045 A 
ATOM      4  C   UNL d   1      19.151  33.126  18.097  0.00  0.00     0.107 A 
ATOM      5  C   UNL d   1      19.198  32.178  18.412  0.00  0.00     0.082 A 
ATOM      6  C   UNL d   1      19.769  32.645  16.553  0.00  0.00     0.082 A 
ATOM      7  C   UNL d   1      19.531  31.463  17.796  0.00  0.00     0.085 A 
ATOM      8  C   UNL d   1      19.816  31.697  16.867  0.00  0.00     0.075 A 
ATOM      9  C   UNL d   1      18.507  33.646  19.696  0.00  0.00     0.090 A 
ATOM     10  C   UNL d   1      18.904  31.920  19.377  0.00  0.00     0.190 A 
ATOM     11  C   UNL d   1      18.557  32.658  20.024  0.00  0.00     0.094 A 
ENDROOT
BRANCH   3  12
ATOM     12  C   UNL d   1      19.389  34.308  16.854  0.00  0.00     0.014 A 
ATOM     13  C   UNL d   1      18.541  34.662  16.459  0.00  0.00     0.029 A 
ATOM     14  C   UNL d   1      18.494  35.610  16.145  0.00  0.00    -0.001 A 
ATOM     15  C   UNL d   1      19.294  36.204  16.226  0.00  0.00     0.017 A 
ATOM     16  C   UNL d   1      20.142  35.850  16.620  0.00  0.00     0.038 A 
ATOM     17  C   UNL d   1      20.189  34.902  16.934  0.00  0.00     0.076 A 
BRANCH  14  18
ATOM     18  C   UNL d   1      17.646  35.964  15.751  0.00  0.00     0.090 A 
ATOM     19  O   UNL d   1      17.470  36.949  15.745  0.00  0.00    -0.309 OA
ATOM     20  C   UNL d   1      16.622  37.303  15.350  0.00  0.00     0.095 A 
ATOM     21  C   UNL d   1      15.950  36.673  14.962  0.00  0.00     0.081 A 
ATOM     22  C   UNL d   1      16.453  38.331  15.352  0.00  0.00     0.075 A 
ATOM     23  C   UNL d   1      16.126  35.689  14.968  0.00  0.00     0.190 A 
ATOM     24  C   UNL d   1      15.062  37.027  14.547  0.00  0.00     0.085 A 
ATOM     25  O   UNL d   1      15.454  35.058  14.579  0.00  0.00    -0.287 OA
ATOM     26  C   UNL d   1      16.974  35.334  15.362  0.00  0.00     0.094 A 
ATOM     27  C   UNL d   1      14.872  38.052  14.538  0.00  0.00     0.074 A 
ATOM     28  C   UNL d   1      15.573  38.708  14.942  0.00  0.00     0.071 A 
BRANCH  24  29
ATOM     29  O   UNL d   1      14.397  36.388  14.162  0.00  0.00    -0.360 OA
ATOM     30  H   UNL d   1      13.794  36.454  14.289  0.00  0.00     0.217 HD
ENDBRANCH  24  29
BRANCH  28  31
ATOM     31  O   UNL d   1      15.400  39.693  14.938  0.00  0.00    -0.361 OA
ATOM     32  H   UNL d   1      15.651  40.050  14.497  0.00  0.00     0.217 HD
ENDBRANCH  28  31
ENDBRANCH  14  18
BRANCH  17  33
ATOM     33  O   UNL d   1      21.037  34.547  17.329  0.00  0.00    -0.360 OA
ATOM     34  H   UNL d   1      21.016  34.150  17.804  0.00  0.00     0.217 HD
ENDBRANCH  17  33
ENDBRANCH   3  12
BRANCH   6  35
ATOM     35  O   UNL d   1      20.054  32.879  15.623  0.00  0.00    -0.360 OA
ATOM     36  H   UNL d   1      19.772  32.617  15.137  0.00  0.00     0.217 HD
ENDBRANCH   6  35
BRANCH   9  37
ATOM     37  C   UNL d   1      18.175  34.363  20.309  0.00  0.00    -0.002 A 
ATOM     38  C   UNL d   1      17.219  34.653  20.266  0.00  0.00     0.017 A 
ATOM     39  C   UNL d   1      16.886  35.370  20.878  0.00  0.00     0.037 A 
ATOM     40  C   UNL d   1      17.510  35.798  21.532  0.00  0.00     0.065 A 
ATOM     41  C   UNL d   1      18.466  35.509  21.574  0.00  0.00     0.037 A 
ATOM     42  C   UNL d   1      18.798  34.791  20.962  0.00  0.00     0.017 A 
BRANCH  40  43
ATOM     43  O   UNL d   1      17.177  36.516  22.144  0.00  0.00    -0.361 OA
ATOM     44  H   UNL d   1      17.114  37.097  21.935  0.00  0.00     0.217 HD
ENDBRANCH  40  43
ENDBRANCH   9  37
BRANCH   7  45
ATOM     45  O   UNL d   1      19.578  30.515  18.110  0.00  0.00    -0.360 OA
ATOM     46  H   UNL d   1      19.057  30.196  18.213  0.00  0.00     0.217 HD
ENDBRANCH   7  45
TORSDOF 9
ENDMDL
MODEL 2
REMARK VINA RESULT:    -8.983      1.722      2.647
REMARK INTER + INTRA:          -3.291
REMARK INTER:                 -12.051
REMARK INTRA:                   8.760
REMARK UNBOUND:                 8.843
REMARK  9 active torsions:
REMARK  status: ('A' for Active; 'I' for Inactive)
REMARK    1  A    between atoms: O_3  and  C_17 
REMARK    2  A    between atoms: O_4  and  C_18 
REMARK    3  A    between atoms: O_5  and  C_19 
REMARK    4  A    between atoms: O_7  and  C_32 
REMARK    5  A    between atoms: O_9  and  C_36 
REMARK    6  A    between atoms: O_10  and  C_40 
REMARK    7  A    between atoms: C_11  and  C_13 
REMARK    8  A    between atoms: C_15  and  C_20 
REMARK    9  A    between atoms: C_22  and  C_29 
ROOT
ATOM      1  O   UNL d   1      17.319  33.644  17.423  0.00  0.00    -0.308 OA
ATOM      2  O   UNL d   1      20.139  33.181  18.540  0.00  0.00    -0.287 OA
ATOM      3  C   UNL d   1      17.941  33.283  15.816  0.00  0.00     0.045 A 
ATOM      4  C   UNL d   1      18.110  33.383  16.797  0.00  0.00     0.107 A 
ATOM      5  C   UNL d   1      19.027  33.233  17.165  0.00  0.00     0.082 A 
ATOM      6  C   UNL d   1      18.691  33.033  15.203  0.00  0.00     0.082 A 
ATOM      7  C   UNL d   1      19.777  32.983  16.552  0.00  0.00     0.085 A 
ATOM      8  C   UNL d   1      19.609  32.883  15.571  0.00  0.00     0.075 A 
ATOM      9  C   UNL d   1      17.486  33.749  18.445  0.00  0.00     0.090 A 
ATOM     10  C   UNL d   1      19.217  33.333  18.184  0.00  0.00     0.190 A 
ATOM     11  C   UNL d   1      18.443  33.593  18.829  0.00  0.00     0.094 A 
ENDROOT
BRANCH   3  12
ATOM     12  C   UNL d   1      17.024  33.433  15.449  0.00  0.00     0.014 A 
ATOM     13  C   UNL d   1      16.748  34.346  15.148  0.00  0.00     0.029 A 
ATOM     14  C   UNL d   1      15.831  34.496  14.781  0.00  0.00    -0.001 A 
ATOM     15  C   UNL d   1      15.188  33.733  14.713  0.00  0.00     0.017 A 
ATOM     16  C   UNL d   1      15.463  32.820  15.013  0.00  0.00     0.038 A 
ATOM     17  C   UNL d   1      16.381  32.670  15.381  0.00  0.00     0.076 A 
BRANCH  14  18
ATOM     18  C   UNL d   1      15.555  35.410  14.481  0.00  0.00     0.090 A 
ATOM     19  O   UNL d   1      15.862  36.216  14.987  0.00  0.00    -0.309 OA
ATOM     20  C   UNL d   1      15.586  37.129  14.687  0.00  0.00     0.095 A 
ATOM     21  C   UNL d   1      15.005  37.236  13.880  0.00  0.00     0.081 A 
ATOM     22  C   UNL d   1      15.913  37.960  15.225  0.00  0.00     0.075 A 
ATOM     23  C   UNL d   1      14.699  36.430  13.374  0.00  0.00     0.190 A 
ATOM     24  C   UNL d   1      14.710  38.181  13.556  0.00  0.00     0.085 A 
ATOM     25  O   UNL d   1      14.118  36.537  12.567  0.00  0.00    -0.287 OA
ATOM     26  C   UNL d   1      14.974  35.517  13.674  0.00  0.00     0.094 A 
ATOM     27  C   UNL d   1      15.025  39.026  14.078  0.00  0.00     0.074 A 
ATOM     28  C   UNL d   1      15.631  38.915  14.918  0.00  0.00     0.071 A 
BRANCH  24  29
ATOM     29  O   UNL d   1      14.129  38.277  12.748  0.00  0.00    -0.360 OA
ATOM     30  H   UNL d   1      14.349  38.126  12.188  0.00  0.00     0.217 HD
ENDBRANCH  24  29
BRANCH  28  31
ATOM     31  O   UNL d   1      15.939  39.718  15.427  0.00  0.00    -0.361 OA
ATOM     32  H   UNL d   1      16.461  40.009  15.261  0.00  0.00     0.217 HD
ENDBRANCH  28  31
ENDBRANCH  14  18
BRANCH  17  33
ATOM     33  O   UNL d   1      16.656  31.757  15.681  0.00  0.00    -0.360 OA
ATOM     34  H   UNL d   1      16.574  31.269  15.307  0.00  0.00     0.217 HD
ENDBRANCH  17  33
ENDBRANCH   3  12
BRANCH   6  35
ATOM     35  O   UNL d   1      18.523  32.933  14.223  0.00  0.00    -0.360 OA
ATOM     36  H   UNL d   1      17.958  32.776  14.019  0.00  0.00     0.217 HD
ENDBRANCH   6  35
BRANCH   9  37
ATOM     37  C   UNL d   1      16.734  33.999  19.055  0.00  0.00    -0.002 A 
ATOM     38  C   UNL d   1      15.926  33.412  19.119  0.00  0.00     0.017 A 
ATOM     39  C   UNL d   1      15.174  33.662  19.728  0.00  0.00     0.037 A 
ATOM     40  C   UNL d   1      15.229  34.498  20.273  0.00  0.00     0.065 A 
ATOM     41  C   UNL d   1      16.036  35.085  20.210  0.00  0.00     0.037 A 
ATOM     42  C   UNL d   1      16.789  34.835  19.600  0.00  0.00     0.017 A 
BRANCH  40  43
ATOM     43  O   UNL d   1      14.476  34.748  20.883  0.00  0.00    -0.361 OA
ATOM     44  H   UNL d   1      14.232  34.324  21.264  0.00  0.00     0.217 HD
ENDBRANCH  40  43
ENDBRANCH   9  37
BRANCH   7  45
ATOM     45  O   UNL d   1      20.695  32.833  16.919  0.00  0.00    -0.360 OA
ATOM     46  H   UNL d   1      21.172  32.742  16.534  0.00  0.00     0.217 HD
ENDBRANCH   7  45
TORSDOF 9
ENDMDL
MODEL 3
REMARK VINA RESULT:    -8.890      1.950      3.045
REMARK INTER + INTRA:          -3.165
REMARK INTER:                 -11.824
REMARK INTRA:                   8.659
REMARK UNBOUND:                 8.843
REMARK  9 active torsions:
REMARK  status: ('A' for Active; 'I' for Inactive)
REMARK    1  A    between atoms: O_3  and  C_17 
REMARK    2  A    between atoms: O_4  and  C_18 
REMARK    3  A    between atoms: O_5  and  C_19 
REMARK    4  A    between atoms: O_7  and  C_32 
REMARK    5  A    between atoms: O_9  and  C_36 
REMARK    6  A    between atoms: O_10  and  C_40 
REMARK    7  A    between atoms: C_11  and  C_13 
REMARK    8  A    between atoms: C_15  and  C_20 
REMARK    9  A    between atoms: C_22  and  C_29 
ROOT
ATOM      1  O   UNL d   1      18.217  32.370  17.608  0.00  0.00    -0.308 OA
ATOM      2  O   UNL d   1      19.724  32.172  20.275  0.00  0.00    -0.287 OA
ATOM      3  C   UNL d   1      19.422  33.532  17.062  0.00  0.00     0.045 A 
ATOM      4  C   UNL d   1      19.082  32.926  17.781  0.00  0.00     0.107 A 
ATOM      5  C   UNL d   1      19.570  32.859  18.651  0.00  0.00     0.082 A 
ATOM      6  C   UNL d   1      20.250  34.071  17.213  0.00  0.00     0.082 A 
ATOM      7  C   UNL d   1      20.398  33.398  18.802  0.00  0.00     0.085 A 
ATOM      8  C   UNL d   1      20.739  34.004  18.083  0.00  0.00     0.075 A 
ATOM      9  C   UNL d   1      17.857  31.737  18.352  0.00  0.00     0.090 A 
ATOM     10  C   UNL d   1      19.227  32.232  19.409  0.00  0.00     0.190 A 
ATOM     11  C   UNL d   1      18.365  31.667  19.259  0.00  0.00     0.094 A 
ENDROOT
BRANCH   3  12
ATOM     12  C   UNL d   1      18.934  33.599  16.192  0.00  0.00     0.014 A 
ATOM     13  C   UNL d   1      18.226  34.295  16.068  0.00  0.00     0.029 A 
ATOM     14  C   UNL d   1      17.738  34.362  15.198  0.00  0.00    -0.001 A 
ATOM     15  C   UNL d   1      17.957  33.733  14.452  0.00  0.00     0.017 A 
ATOM     16  C   UNL d   1      18.664  33.037  14.576  0.00  0.00     0.038 A 
ATOM     17  C   UNL d   1      19.153  32.970  15.446  0.00  0.00     0.076 A 
BRANCH  14  18
ATOM     18  C   UNL d   1      17.031  35.058  15.074  0.00  0.00     0.090 A 
ATOM     19  O   UNL d   1      17.232  36.017  15.273  0.00  0.00    -0.309 OA
ATOM     20  C   UNL d   1      16.525  36.713  15.149  0.00  0.00     0.095 A 
ATOM     21  C   UNL d   1      15.616  36.450  14.826  0.00  0.00     0.081 A 
ATOM     22  C   UNL d   1      16.750  37.708  15.361  0.00  0.00     0.075 A 
ATOM     23  C   UNL d   1      15.415  35.491  14.626  0.00  0.00     0.190 A 
ATOM     24  C   UNL d   1      14.869  37.164  14.692  0.00  0.00     0.085 A 
ATOM     25  O   UNL d   1      14.506  35.228  14.303  0.00  0.00    -0.287 OA
ATOM     26  C   UNL d   1      16.122  34.795  14.750  0.00  0.00     0.094 A 
ATOM     27  C   UNL d   1      15.072  38.165  14.898  0.00  0.00     0.074 A 
ATOM     28  C   UNL d   1      16.019  38.439  15.235  0.00  0.00     0.071 A 
BRANCH  24  29
ATOM     29  O   UNL d   1      13.964  36.889  14.368  0.00  0.00    -0.360 OA
ATOM     30  H   UNL d   1      13.511  36.773  14.775  0.00  0.00     0.217 HD
ENDBRANCH  24  29
BRANCH  28  31
ATOM     31  O   UNL d   1      16.224  39.397  15.435  0.00  0.00    -0.361 OA
ATOM     32  H   UNL d   1      16.804  39.567  15.573  0.00  0.00     0.217 HD
ENDBRANCH  28  31
ENDBRANCH  14  18
BRANCH  17  33
ATOM     33  O   UNL d   1      19.860  32.274  15.570  0.00  0.00    -0.360 OA
ATOM     34  H   UNL d   1      19.987  32.059  16.137  0.00  0.00     0.217 HD
ENDBRANCH  17  33
ENDBRANCH   3  12
BRANCH   6  35
ATOM     35  O   UNL d   1      20.591  34.677  16.494  0.00  0.00    -0.360 OA
ATOM     36  H   UNL d   1      20.878  35.206  16.645  0.00  0.00     0.217 HD
ENDBRANCH   6  35
BRANCH   9  37
ATOM     37  C   UNL d   1      17.027  31.199  18.197  0.00  0.00    -0.002 A 
ATOM     38  C   UNL d   1      16.130  31.638  18.255  0.00  0.00     0.017 A 
ATOM     39  C   UNL d   1      15.301  31.101  18.100  0.00  0.00     0.037 A 
ATOM     40  C   UNL d   1      15.369  30.127  17.887  0.00  0.00     0.065 A 
ATOM     41  C   UNL d   1      16.266  29.688  17.828  0.00  0.00     0.037 A 
ATOM     42  C   UNL d   1      17.095  30.226  17.984  0.00  0.00     0.017 A 
BRANCH  40  43
ATOM     43  O   UNL d   1      14.540  29.589  17.731  0.00  0.00    -0.361 OA
ATOM     44  H   UNL d   1      14.438  29.073  18.061  0.00  0.00     0.217 HD
ENDBRANCH  40  43
ENDBRANCH   9  37
BRANCH   7  45
ATOM     45  O   UNL d   1      20.887  33.330  19.672  0.00  0.00    -0.360 OA
ATOM     46  H   UNL d   1      21.303  32.879  19.760  0.00  0.00     0.217 HD
ENDBRANCH   7  45
TORSDOF 9
ENDMDL
MODEL 4
REMARK VINA RESULT:    -8.809      2.207      3.948
REMARK INTER + INTRA:          -3.056
REMARK INTER:                 -11.551
REMARK INTRA:                   8.495
REMARK UNBOUND:                 8.843
REMARK  9 active torsions:
REMARK  status: ('A' for Active; 'I' for Inactive)
REMARK    1  A    between atoms: O_3  and  C_17 
REMARK    2  A    between atoms: O_4  and  C_18 
REMARK    3  A    between atoms: O_5  and  C_19 
REMARK    4  A    between atoms: O_7  and  C_32 
REMARK    5  A    between atoms: O_9  and  C_36 
REMARK    6  A    between atoms: O_10  and  C_40 
REMARK    7  A    between atoms: C_11  and  C_13 
REMARK    8  A    between atoms: C_15  and  C_20 
REMARK    9  A    between atoms: C_22  and  C_29 
ROOT
ATOM      1  O   UNL d   1      17.268  32.715  17.137  0.00  0.00    -0.308 OA
ATOM      2  O   UNL d   1      16.846  31.281  19.818  0.00  0.00    -0.287 OA
ATOM      3  C   UNL d   1      15.527  32.653  16.879  0.00  0.00     0.045 A 
ATOM      4  C   UNL d   1      16.315  32.442  17.458  0.00  0.00     0.107 A 
ATOM      5  C   UNL d   1      16.181  31.975  18.332  0.00  0.00     0.082 A 
ATOM      6  C   UNL d   1      14.607  32.397  17.173  0.00  0.00     0.082 A 
ATOM      7  C   UNL d   1      15.261  31.719  18.627  0.00  0.00     0.085 A 
ATOM      8  C   UNL d   1      14.473  31.930  18.047  0.00  0.00     0.075 A 
ATOM      9  C   UNL d   1      18.092  32.499  17.736  0.00  0.00     0.090 A 
ATOM     10  C   UNL d   1      16.992  31.749  18.946  0.00  0.00     0.190 A 
ATOM     11  C   UNL d   1      17.953  32.012  18.646  0.00  0.00     0.094 A 
ENDROOT
BRANCH   3  12
ATOM     12  C   UNL d   1      15.661  33.120  16.004  0.00  0.00     0.014 A 
ATOM     13  C   UNL d   1      15.666  34.119  15.967  0.00  0.00     0.029 A 
ATOM     14  C   UNL d   1      15.799  34.586  15.093  0.00  0.00    -0.001 A 
ATOM     15  C   UNL d   1      15.928  34.054  14.256  0.00  0.00     0.017 A 
ATOM     16  C   UNL d   1      15.922  33.055  14.293  0.00  0.00     0.038 A 
ATOM     17  C   UNL d   1      15.789  32.588  15.168  0.00  0.00     0.076 A 
BRANCH  14  18
ATOM     18  C   UNL d   1      15.804  35.585  15.056  0.00  0.00     0.090 A 
ATOM     19  O   UNL d   1      15.009  36.077  14.702  0.00  0.00    -0.309 OA
ATOM     20  C   UNL d   1      15.014  37.076  14.664  0.00  0.00     0.095 A 
ATOM     21  C   UNL d   1      15.815  37.584  14.981  0.00  0.00     0.081 A 
ATOM     22  C   UNL d   1      14.177  37.574  14.293  0.00  0.00     0.075 A 
ATOM     23  C   UNL d   1      16.611  37.093  15.335  0.00  0.00     0.190 A 
ATOM     24  C   UNL d   1      15.835  38.625  14.948  0.00  0.00     0.085 A 
ATOM     25  O   UNL d   1      17.411  37.601  15.652  0.00  0.00    -0.287 OA
ATOM     26  C   UNL d   1      16.605  36.093  15.373  0.00  0.00     0.094 A 
ATOM     27  C   UNL d   1      15.009  39.144  14.581  0.00  0.00     0.074 A 
ATOM     28  C   UNL d   1      14.175  38.615  14.251  0.00  0.00     0.071 A 
BRANCH  24  29
ATOM     29  O   UNL d   1      16.641  39.123  15.268  0.00  0.00    -0.360 OA
ATOM     30  H   UNL d   1      16.805  39.096  15.866  0.00  0.00     0.217 HD
ENDBRANCH  24  29
BRANCH  28  31
ATOM     31  O   UNL d   1      13.377  39.103  13.896  0.00  0.00    -0.361 OA
ATOM     32  H   UNL d   1      13.431  39.692  13.711  0.00  0.00     0.217 HD
ENDBRANCH  28  31
ENDBRANCH  14  18
BRANCH  17  33
ATOM     33  O   UNL d   1      15.784  31.588  15.205  0.00  0.00    -0.360 OA
ATOM     34  H   UNL d   1      15.265  31.276  15.071  0.00  0.00     0.217 HD
ENDBRANCH  17  33
ENDBRANCH   3  12
BRANCH   6  35
ATOM     35  O   UNL d   1      13.820  32.607  16.594  0.00  0.00    -0.360 OA
ATOM     36  H   UNL d   1      13.900  32.715  15.988  0.00  0.00     0.217 HD
ENDBRANCH   6  35
BRANCH   9  37
ATOM     37  C   UNL d   1      19.011  32.757  17.437  0.00  0.00    -0.002 A 
ATOM     38  C   UNL d   1      19.512  32.171  16.799  0.00  0.00     0.017 A 
ATOM     39  C   UNL d   1      20.431  32.428  16.501  0.00  0.00     0.037 A 
ATOM     40  C   UNL d   1      20.849  33.271  16.840  0.00  0.00     0.065 A 
ATOM     41  C   UNL d   1      20.348  33.857  17.478  0.00  0.00     0.037 A 
ATOM     42  C   UNL d   1      19.429  33.599  17.776  0.00  0.00     0.017 A 
BRANCH  40  43
ATOM     43  O   UNL d   1      21.768  33.529  16.541  0.00  0.00    -0.361 OA
ATOM     44  H   UNL d   1      22.195  33.091  16.436  0.00  0.00     0.217 HD
ENDBRANCH  40  43
ENDBRANCH   9  37
BRANCH   7  45
ATOM     45  O   UNL d   1      15.127  31.252  19.501  0.00  0.00    -0.360 OA
ATOM     46  H   UNL d   1      15.615  31.021  19.806  0.00  0.00     0.217 HD
ENDBRANCH   7  45
TORSDOF 9
ENDMDL
MODEL 5
REMARK VINA RESULT:    -8.798      2.043      3.227
REMARK INTER + INTRA:          -3.042
REMARK INTER:                 -11.973
REMARK INTRA:                   8.931
REMARK UNBOUND:                 8.843
REMARK  9 active torsions:
REMARK  status: ('A' for Active; 'I' for Inactive)
REMARK    1  A    between atoms: O_3  and  C_17 
REMARK    2  A    between atoms: O_4  and  C_18 
REMARK    3  A    between atoms: O_5  and  C_19 
REMARK    4  A    between atoms: O_7  and  C_32 
REMARK    5  A    between atoms: O_9  and  C_36 
REMARK    6  A    between atoms: O_10  and  C_40 
REMARK    7  A    between atoms: C_11  and  C_13 
REMARK    8  A    between atoms: C_15  and  C_20 
REMARK    9  A    between atoms: C_22  and  C_29 
ROOT
ATOM      1  O   UNL d   1      17.622  34.865  17.729  0.00  0.00    -0.308 OA
ATOM      2  O   UNL d   1      20.100  35.153  19.517  0.00  0.00    -0.287 OA
ATOM      3  C   UNL d   1      18.585  35.442  16.373  0.00  0.00     0.045 A 
ATOM      4  C   UNL d   1      18.527  35.206  17.343  0.00  0.00     0.107 A 
ATOM      5  C   UNL d   1      19.333  35.298  17.929  0.00  0.00     0.082 A 
ATOM      6  C   UNL d   1      19.447  35.771  15.989  0.00  0.00     0.082 A 
ATOM      7  C   UNL d   1      20.195  35.627  17.545  0.00  0.00     0.085 A 
ATOM      8  C   UNL d   1      20.253  35.863  16.575  0.00  0.00     0.075 A 
ATOM      9  C   UNL d   1      17.554  34.617  18.739  0.00  0.00     0.090 A 
ATOM     10  C   UNL d   1      19.288  35.056  18.941  0.00  0.00     0.190 A 
ATOM     11  C   UNL d   1      18.394  34.713  19.349  0.00  0.00     0.094 A 
ENDROOT
BRANCH   3  12
ATOM     12  C   UNL d   1      17.779  35.350  15.788  0.00  0.00     0.014 A 
ATOM     13  C   UNL d   1      17.171  36.131  15.647  0.00  0.00     0.029 A 
ATOM     14  C   UNL d   1      16.366  36.038  15.061  0.00  0.00    -0.001 A 
ATOM     15  C   UNL d   1      16.169  35.165  14.617  0.00  0.00     0.017 A 
ATOM     16  C   UNL d   1      16.776  34.383  14.758  0.00  0.00     0.038 A 
ATOM     17  C   UNL d   1      17.582  34.476  15.344  0.00  0.00     0.076 A 
BRANCH  14  18
ATOM     18  C   UNL d   1      15.758  36.820  14.920  0.00  0.00     0.090 A 
ATOM     19  O   UNL d   1      14.838  36.678  14.556  0.00  0.00    -0.309 OA
ATOM     20  C   UNL d   1      14.230  37.459  14.415  0.00  0.00     0.095 A 
ATOM     21  C   UNL d   1      14.542  38.382  14.638  0.00  0.00     0.081 A 
ATOM     22  C   UNL d   1      13.273  37.295  14.035  0.00  0.00     0.075 A 
ATOM     23  C   UNL d   1      15.463  38.524  15.001  0.00  0.00     0.190 A 
ATOM     24  C   UNL d   1      13.920  39.206  14.496  0.00  0.00     0.085 A 
ATOM     25  O   UNL d   1      15.776  39.448  15.224  0.00  0.00    -0.287 OA
ATOM     26  C   UNL d   1      16.071  37.743  15.143  0.00  0.00     0.094 A 
ATOM     27  C   UNL d   1      12.960  39.066  14.117  0.00  0.00     0.074 A 
ATOM     28  C   UNL d   1      12.634  38.104  13.885  0.00  0.00     0.071 A 
BRANCH  24  29
ATOM     29  O   UNL d   1      14.243  40.125  14.722  0.00  0.00    -0.360 OA
ATOM     30  H   UNL d   1      14.835  40.280  14.618  0.00  0.00     0.217 HD
ENDBRANCH  24  29
BRANCH  28  31
ATOM     31  O   UNL d   1      11.714  37.958  13.521  0.00  0.00    -0.361 OA
ATOM     32  H   UNL d   1      11.219  38.141  13.847  0.00  0.00     0.217 HD
ENDBRANCH  28  31
ENDBRANCH  14  18
BRANCH  17  33
ATOM     33  O   UNL d   1      18.190  33.694  15.485  0.00  0.00    -0.360 OA
ATOM     34  H   UNL d   1      18.323  33.316  15.012  0.00  0.00     0.217 HD
ENDBRANCH  17  33
ENDBRANCH   3  12
BRANCH   6  35
ATOM     35  O   UNL d   1      19.504  36.007  15.019  0.00  0.00    -0.360 OA
ATOM     36  H   UNL d   1      19.572  36.599  14.848  0.00  0.00     0.217 HD
ENDBRANCH   6  35
BRANCH   9  37
ATOM     37  C   UNL d   1      16.690  34.288  19.119  0.00  0.00    -0.002 A 
ATOM     38  C   UNL d   1      16.299  33.425  18.798  0.00  0.00     0.017 A 
ATOM     39  C   UNL d   1      15.434  33.097  19.178  0.00  0.00     0.037 A 
ATOM     40  C   UNL d   1      14.961  33.630  19.879  0.00  0.00     0.065 A 
ATOM     41  C   UNL d   1      15.352  34.493  20.200  0.00  0.00     0.037 A 
ATOM     42  C   UNL d   1      16.217  34.822  19.819  0.00  0.00     0.017 A 
BRANCH  40  43
ATOM     43  O   UNL d   1      14.096  33.302  20.260  0.00  0.00    -0.361 OA
ATOM     44  H   UNL d   1      13.824  33.611  20.724  0.00  0.00     0.217 HD
ENDBRANCH  40  43
ENDBRANCH   9  37
BRANCH   7  45
ATOM     45  O   UNL d   1      21.001  35.719  18.130  0.00  0.00    -0.360 OA
ATOM     46  H   UNL d   1      21.332  36.243  18.121  0.00  0.00     0.217 HD
ENDBRANCH   7  45
TORSDOF 9
ENDMDL
