MODEL 1
REMARK VINA RESULT:    -9.672      0.000      0.000
REMARK INTER + INTRA:          52.757
REMARK INTER:                 -17.041
REMARK INTRA:                  69.798
REMARK UNBOUND:                70.345
REMARK  23 active torsions:
REMARK  status: ('A' for Active; 'I' for Inactive)
REMARK    1  A    between atoms: C_29  and  O_6 
REMARK    2  A    between atoms: C_32  and  O_7 
REMARK    3  A    between atoms: C_38  and  O_8 
REMARK    4  A    between atoms: O_10  and  C_47 
REMARK    5  A    between atoms: O_11  and  C_48 
REMARK    6  A    between atoms: O_12  and  C_51 
REMARK    7  A    between atoms: O_13  and  C_62 
REMARK    8  A    between atoms: O_14  and  C_63 
REMARK    9  A    between atoms: C_65  and  O_15 
REMARK   10  A    between atoms: O_16  and  C_69 
REMARK   11  A    between atoms: O_17  and  C_70 
REMARK   12  A    between atoms: O_18  and  C_71 
REMARK   13  A    between atoms: O_19  and  C_74 
REMARK   14  A    between atoms: O_20  and  C_75 
REMARK   15  A    between atoms: O_21  and  C_76 
REMARK   16  A    between atoms: O_22  and  C_79 
REMARK   17  A    between atoms: O_23  and  C_82 
REMARK   18  A    between atoms: O_24  and  C_84 
REMARK   19  A    between atoms: C_34  and  C_45 
REMARK   20  A    between atoms: C_35  and  C_46 
REMARK   21  A    between atoms: C_36  and  C_42 
REMARK   22  A    between atoms: C_41  and  C_49 
REMARK   23  A    between atoms: C_64  and  C_77 
ROOT
ATOM      1  O   UNL d   1      22.213  36.370  19.147  0.00  0.00    -0.305 OA
ATOM      2  O   UNL d   1      19.550  33.934  18.318  0.00  0.00    -0.305 OA
ATOM      3  O   UNL d   1      21.901  33.571  21.136  0.00  0.00    -0.337 OA
ATOM      4  O   UNL d   1      18.905  35.077  16.678  0.00  0.00    -0.306 OA
ATOM      5  O   UNL d   1      24.554  36.308  21.704  0.00  0.00    -0.306 OA
ATOM      6  C   UNL d   1      20.513  35.794  17.804  0.00  0.00     0.097 A 
ATOM      7  C   UNL d   1      23.129  35.719  20.668  0.00  0.00     0.097 A 
ATOM      8  C   UNL d   1      20.850  35.208  18.652  0.00  0.00     0.022 A 
ATOM      9  C   UNL d   1      21.977  35.024  20.012  0.00  0.00     0.021 A 
ATOM     10  C   UNL d   1      19.679  35.439  17.207  0.00  0.00     0.199 A 
ATOM     11  C   UNL d   1      21.650  35.548  19.226  0.00  0.00     0.092 A 
ATOM     12  C   UNL d   1      20.727  33.763  19.719  0.00  0.00     0.021 A 
ATOM     13  C   UNL d   1      23.585  37.434  19.732  0.00  0.00     0.199 A 
ATOM     14  C   UNL d   1      20.386  34.309  18.901  0.00  0.00     0.092 A 
ATOM     15  C   UNL d   1      23.684  36.547  20.574  0.00  0.00     0.231 A 
ATOM     16  C   UNL d   1      19.195  34.503  17.465  0.00  0.00     0.231 A 
ATOM     17  C   UNL d   1      20.242  32.827  19.978  0.00  0.00     0.094 A 
ATOM     18  C   UNL d   1      21.528  34.123  20.279  0.00  0.00     0.089 A 
ATOM     19  C   UNL d   1      20.599  32.258  20.831  0.00  0.00     0.165 A 
ATOM     20  C   UNL d   1      20.153  36.300  17.000  0.00  0.00     0.020 A 
ATOM     21  C   UNL d   1      23.657  34.970  21.855  0.00  0.00     0.020 A 
ATOM     22  C   UNL d   1      21.433  32.633  21.413  0.00  0.00     0.192 A 
ATOM     23  C   UNL d   1      19.371  35.952  16.451  0.00  0.00     0.085 A 
ATOM     24  C   UNL d   1      24.421  35.480  22.249  0.00  0.00     0.085 A 
ATOM     25  C   UNL d   1      20.557  37.128  16.745  0.00  0.00     0.078 A 
ATOM     26  C   UNL d   1      23.346  34.067  22.271  0.00  0.00     0.078 A 
ATOM     27  C   UNL d   1      19.072  36.466  15.704  0.00  0.00     0.074 A 
ATOM     28  C   UNL d   1      24.927  35.124  23.087  0.00  0.00     0.074 A 
ATOM     29  C   UNL d   1      20.233  37.617  15.992  0.00  0.00     0.073 A 
ATOM     30  C   UNL d   1      23.838  33.691  23.109  0.00  0.00     0.073 A 
ATOM     31  C   UNL d   1      19.498  37.290  15.476  0.00  0.00     0.071 A 
ATOM     32  C   UNL d   1      24.633  34.224  23.519  0.00  0.00     0.071 A 
ENDROOT
BRANCH  17  33
ATOM     33  C   UNL d   1      19.474  32.491  19.434  0.00  0.00     0.020 A 
ATOM     34  C   UNL d   1      18.536  32.709  19.705  0.00  0.00     0.088 A 
ATOM     35  O   UNL d   1      18.377  33.287  20.557  0.00  0.00    -0.337 OA
ATOM     36  C   UNL d   1      17.767  32.374  19.162  0.00  0.00     0.012 A 
ATOM     37  C   UNL d   1      17.403  33.518  20.846  0.00  0.00     0.191 A 
ATOM     38  C   UNL d   1      16.602  33.169  20.280  0.00  0.00     0.156 A 
ATOM     39  C   UNL d   1      16.786  32.593  19.431  0.00  0.00     0.079 A 
ATOM     40  C   UNL d   1      17.936  31.821  18.346  0.00  0.00     0.077 A 
ATOM     41  C   UNL d   1      18.873  31.602  18.074  0.00  0.00     0.074 A 
ATOM     42  C   UNL d   1      19.642  31.938  18.618  0.00  0.00     0.078 A 
BRANCH  37  43
ATOM     43  C   UNL d   1      17.239  34.072  21.663  0.00  0.00    -0.024 A 
ATOM     44  C   UNL d   1      17.161  35.065  21.585  0.00  0.00     0.049 A 
ATOM     45  C   UNL d   1      16.997  35.620  22.401  0.00  0.00     0.099 A 
ATOM     46  C   UNL d   1      16.911  35.180  23.295  0.00  0.00     0.098 A 
ATOM     47  C   UNL d   1      16.989  34.187  23.373  0.00  0.00     0.040 A 
ATOM     48  C   UNL d   1      17.153  33.632  22.557  0.00  0.00     0.013 A 
BRANCH  45  49
ATOM     49  O   UNL d   1      16.919  36.614  22.323  0.00  0.00    -0.358 OA
ATOM     50  H   UNL d   1      16.654  36.941  22.778  0.00  0.00     0.217 HD
ENDBRANCH  45  49
BRANCH  46  51
ATOM     51  O   UNL d   1      16.748  35.734  24.111  0.00  0.00    -0.358 OA
ATOM     52  H   UNL d   1      17.226  35.992  24.412  0.00  0.00     0.217 HD
ENDBRANCH  46  51
ENDBRANCH  37  43
BRANCH  38  53
ATOM     53  O   UNL d   1      15.663  33.385  20.548  0.00  0.00    -0.392 OA
ATOM     54  H   UNL d   1      15.532  33.518  21.139  0.00  0.00     0.210 HD
ENDBRANCH  38  53
BRANCH  40  55
ATOM     55  O   UNL d   1      17.167  31.485  17.801  0.00  0.00    -0.360 OA
ATOM     56  H   UNL d   1      16.603  31.736  17.871  0.00  0.00     0.217 HD
ENDBRANCH  40  55
BRANCH  42  57
ATOM     57  O   UNL d   1      20.583  32.100  18.914  0.00  0.00    -0.360 OA
ATOM     58  H   UNL d   1      20.714  32.588  19.274  0.00  0.00     0.217 HD
ENDBRANCH  42  57
ENDBRANCH  17  33
BRANCH  19  59
ATOM     59  O   UNL d   1      20.159  31.394  21.078  0.00  0.00    -0.392 OA
ATOM     60  H   UNL d   1      19.742  31.378  21.536  0.00  0.00     0.210 HD
ENDBRANCH  19  59
BRANCH  22  61
ATOM     61  C   UNL d   1      21.769  32.116  22.202  0.00  0.00    -0.024 A 
ATOM     62  C   UNL d   1      21.363  32.262  23.104  0.00  0.00     0.049 A 
ATOM     63  C   UNL d   1      21.699  31.745  23.892  0.00  0.00     0.099 A 
ATOM     64  C   UNL d   1      22.440  31.084  23.777  0.00  0.00     0.098 A 
ATOM     65  C   UNL d   1      22.846  30.939  22.875  0.00  0.00     0.040 A 
ATOM     66  C   UNL d   1      22.510  31.455  22.087  0.00  0.00     0.013 A 
BRANCH  63  67
ATOM     67  O   UNL d   1      21.293  31.890  24.794  0.00  0.00    -0.358 OA
ATOM     68  H   UNL d   1      21.129  32.460  24.973  0.00  0.00     0.217 HD
ENDBRANCH  63  67
BRANCH  64  69
ATOM     69  O   UNL d   1      22.776  30.568  24.564  0.00  0.00    -0.358 OA
ATOM     70  H   UNL d   1      23.383  30.457  24.627  0.00  0.00     0.217 HD
ENDBRANCH  64  69
ENDBRANCH  22  61
BRANCH  16  71
ATOM     71  C   UNL d   1      18.428  34.188  16.905  0.00  0.00     0.010 A 
ATOM     72  C   UNL d   1      18.592  33.577  16.131  0.00  0.00     0.052 A 
ATOM     73  C   UNL d   1      17.826  33.262  15.572  0.00  0.00     0.099 A 
ATOM     74  C   UNL d   1      16.895  33.558  15.787  0.00  0.00     0.098 A 
ATOM     75  C   UNL d   1      16.731  34.169  16.561  0.00  0.00     0.040 A 
ATOM     76  C   UNL d   1      17.498  34.484  17.120  0.00  0.00     0.015 A 
BRANCH  73  77
ATOM     77  O   UNL d   1      17.990  32.651  14.798  0.00  0.00    -0.358 OA
ATOM     78  H   UNL d   1      17.511  32.417  14.481  0.00  0.00     0.217 HD
ENDBRANCH  73  77
BRANCH  74  79
ATOM     79  O   UNL d   1      16.128  33.243  15.227  0.00  0.00    -0.358 OA
ATOM     80  H   UNL d   1      15.594  33.083  15.497  0.00  0.00     0.217 HD
ENDBRANCH  74  79
ENDBRANCH  16  71
BRANCH  10  81
ATOM     81  O   UNL d   1      19.051  35.556  16.437  0.00  0.00    -0.389 OA
ATOM     82  H   UNL d   1      18.859  35.880  15.944  0.00  0.00     0.210 HD
ENDBRANCH  10  81
BRANCH  13  83
ATOM     83  O   UNL d   1      23.597  38.210  19.101  0.00  0.00    -0.389 OA
ATOM     84  H   UNL d   1      24.109  38.337  18.776  0.00  0.00     0.210 HD
ENDBRANCH  13  83
BRANCH  25  85
ATOM     85  O   UNL d   1      21.327  37.485  17.273  0.00  0.00    -0.360 OA
ATOM     86  H   UNL d   1      21.824  37.130  17.376  0.00  0.00     0.217 HD
ENDBRANCH  25  85
BRANCH  15  87
ATOM     87  C   UNL d   1      24.238  37.374  20.481  0.00  0.00     0.010 A 
ATOM     88  C   UNL d   1      24.017  38.186  21.021  0.00  0.00     0.052 A 
ATOM     89  C   UNL d   1      24.572  39.013  20.928  0.00  0.00     0.099 A 
ATOM     90  C   UNL d   1      25.345  39.028  20.295  0.00  0.00     0.098 A 
ATOM     91  C   UNL d   1      25.566  38.216  19.755  0.00  0.00     0.040 A 
ATOM     92  C   UNL d   1      25.012  37.388  19.848  0.00  0.00     0.015 A 
BRANCH  89  93
ATOM     93  O   UNL d   1      24.352  39.826  21.467  0.00  0.00    -0.358 OA
ATOM     94  H   UNL d   1      24.770  40.280  21.528  0.00  0.00     0.217 HD
ENDBRANCH  89  93
BRANCH  90  95
ATOM     95  O   UNL d   1      25.900  39.855  20.202  0.00  0.00    -0.358 OA
ATOM     96  H   UNL d   1      25.696  40.327  19.854  0.00  0.00     0.217 HD
ENDBRANCH  90  95
ENDBRANCH  15  87
BRANCH  26  97
ATOM     97  O   UNL d   1      22.581  33.565  21.869  0.00  0.00    -0.360 OA
ATOM     98  H   UNL d   1      22.593  32.945  21.850  0.00  0.00     0.217 HD
ENDBRANCH  26  97
BRANCH  31  99
ATOM     99  O   UNL d   1      19.171  37.815  14.691  0.00  0.00    -0.361 OA
ATOM    100  H   UNL d   1      18.658  37.637  14.390  0.00  0.00     0.217 HD
ENDBRANCH  31  99
BRANCH  32 101
ATOM    101  O   UNL d   1      25.112  33.872  24.324  0.00  0.00    -0.361 OA
ATOM    102  H   UNL d   1      25.045  33.278  24.489  0.00  0.00     0.217 HD
ENDBRANCH  32 101
TORSDOF 23
ENDMDL
MODEL 2
REMARK VINA RESULT:    -9.632      2.991      8.215
REMARK INTER + INTRA:          52.831
REMARK INTER:                 -17.020
REMARK INTRA:                  69.851
REMARK UNBOUND:                70.345
REMARK  23 active torsions:
REMARK  status: ('A' for Active; 'I' for Inactive)
REMARK    1  A    between atoms: C_29  and  O_6 
REMARK    2  A    between atoms: C_32  and  O_7 
REMARK    3  A    between atoms: C_38  and  O_8 
REMARK    4  A    between atoms: O_10  and  C_47 
REMARK    5  A    between atoms: O_11  and  C_48 
REMARK    6  A    between atoms: O_12  and  C_51 
REMARK    7  A    between atoms: O_13  and  C_62 
REMARK    8  A    between atoms: O_14  and  C_63 
REMARK    9  A    between atoms: C_65  and  O_15 
REMARK   10  A    between atoms: O_16  and  C_69 
REMARK   11  A    between atoms: O_17  and  C_70 
REMARK   12  A    between atoms: O_18  and  C_71 
REMARK   13  A    between atoms: O_19  and  C_74 
REMARK   14  A    between atoms: O_20  and  C_75 
REMARK   15  A    between atoms: O_21  and  C_76 
REMARK   16  A    between atoms: O_22  and  C_79 
REMARK   17  A    between atoms: O_23  and  C_82 
REMARK   18  A    between atoms: O_24  and  C_84 
REMARK   19  A    between atoms: C_34  and  C_45 
REMARK   20  A    between atoms: C_35  and  C_46 
REMARK   21  A    between atoms: C_36  and  C_42 
REMARK   22  A    between atoms: C_41  and  C_49 
REMARK   23  A    between atoms: C_64  and  C_77 
ROOT
ATOM      1  O   UNL d   1      16.448  34.665  14.678  0.00  0.00    -0.305 OA
ATOM      2  O   UNL d   1      18.590  33.329  17.387  0.00  0.00    -0.305 OA
ATOM      3  O   UNL d   1      15.637  31.594  16.020  0.00  0.00    -0.337 OA
ATOM      4  O   UNL d   1      19.841  35.015  17.337  0.00  0.00    -0.306 OA
ATOM      5  O   UNL d   1      13.634  33.285  13.195  0.00  0.00    -0.306 OA
ATOM      6  C   UNL d   1      18.230  34.948  16.009  0.00  0.00     0.097 A 
ATOM      7  C   UNL d   1      15.082  33.399  14.353  0.00  0.00     0.097 A 
ATOM      8  C   UNL d   1      17.580  34.079  16.031  0.00  0.00     0.022 A 
ATOM      9  C   UNL d   1      16.160  33.236  15.379  0.00  0.00     0.021 A 
ATOM     10  C   UNL d   1      19.072  35.002  16.691  0.00  0.00     0.199 A 
ATOM     11  C   UNL d   1      16.772  34.026  15.377  0.00  0.00     0.092 A 
ATOM     12  C   UNL d   1      17.117  32.473  16.699  0.00  0.00     0.021 A 
ATOM     13  C   UNL d   1      15.264  35.132  13.361  0.00  0.00     0.199 A 
ATOM     14  C   UNL d   1      17.754  33.297  16.696  0.00  0.00     0.092 A 
ATOM     15  C   UNL d   1      14.771  34.048  13.659  0.00  0.00     0.231 A 
ATOM     16  C   UNL d   1      19.254  34.187  17.385  0.00  0.00     0.231 A 
ATOM     17  C   UNL d   1      17.298  31.658  17.392  0.00  0.00     0.094 A 
ATOM     18  C   UNL d   1      16.314  32.442  16.035  0.00  0.00     0.089 A 
ATOM     19  C   UNL d   1      16.634  30.800  17.394  0.00  0.00     0.165 A 
ATOM     20  C   UNL d   1      18.872  35.735  16.035  0.00  0.00     0.020 A 
ATOM     21  C   UNL d   1      14.137  32.234  14.318  0.00  0.00     0.020 A 
ATOM     22  C   UNL d   1      15.798  30.768  16.704  0.00  0.00     0.192 A 
ATOM     23  C   UNL d   1      19.656  35.769  16.680  0.00  0.00     0.085 A 
ATOM     24  C   UNL d   1      13.443  32.399  13.618  0.00  0.00     0.085 A 
ATOM     25  C   UNL d   1      18.740  36.469  15.437  0.00  0.00     0.078 A 
ATOM     26  C   UNL d   1      14.126  31.362  14.887  0.00  0.00     0.078 A 
ATOM     27  C   UNL d   1      20.230  36.532  16.664  0.00  0.00     0.074 A 
ATOM     28  C   UNL d   1      12.689  31.703  13.437  0.00  0.00     0.074 A 
ATOM     29  C   UNL d   1      19.333  37.217  15.447  0.00  0.00     0.073 A 
ATOM     30  C   UNL d   1      13.381  30.651  14.723  0.00  0.00     0.073 A 
ATOM     31  C   UNL d   1      20.071  37.249  16.054  0.00  0.00     0.071 A 
ATOM     32  C   UNL d   1      12.659  30.824  13.993  0.00  0.00     0.071 A 
ENDROOT
BRANCH  17  33
ATOM     33  C   UNL d   1      18.071  31.698  18.024  0.00  0.00     0.020 A 
ATOM     34  C   UNL d   1      17.941  32.047  18.953  0.00  0.00     0.088 A 
ATOM     35  O   UNL d   1      16.993  32.364  19.246  0.00  0.00    -0.337 OA
ATOM     36  C   UNL d   1      18.713  32.088  19.585  0.00  0.00     0.012 A 
ATOM     37  C   UNL d   1      16.849  32.729  20.211  0.00  0.00     0.191 A 
ATOM     38  C   UNL d   1      17.654  32.771  20.870  0.00  0.00     0.156 A 
ATOM     39  C   UNL d   1      18.593  32.449  20.555  0.00  0.00     0.079 A 
ATOM     40  C   UNL d   1      19.618  31.780  19.289  0.00  0.00     0.077 A 
ATOM     41  C   UNL d   1      19.749  31.431  18.362  0.00  0.00     0.074 A 
ATOM     42  C   UNL d   1      18.976  31.390  17.729  0.00  0.00     0.078 A 
BRANCH  37  43
ATOM     43  C   UNL d   1      15.942  33.036  20.503  0.00  0.00    -0.024 A 
ATOM     44  C   UNL d   1      15.641  33.966  20.297  0.00  0.00     0.049 A 
ATOM     45  C   UNL d   1      14.735  34.275  20.588  0.00  0.00     0.099 A 
ATOM     46  C   UNL d   1      14.131  33.651  21.085  0.00  0.00     0.098 A 
ATOM     47  C   UNL d   1      14.433  32.721  21.290  0.00  0.00     0.040 A 
ATOM     48  C   UNL d   1      15.339  32.413  21.000  0.00  0.00     0.013 A 
BRANCH  45  49
ATOM     49  O   UNL d   1      14.433  35.205  20.382  0.00  0.00    -0.358 OA
ATOM     50  H   UNL d   1      14.108  35.526  20.801  0.00  0.00     0.217 HD
ENDBRANCH  45  49
BRANCH  46  51
ATOM     51  O   UNL d   1      13.225  33.958  21.376  0.00  0.00    -0.358 OA
ATOM     52  H   UNL d   1      12.874  34.295  20.991  0.00  0.00     0.217 HD
ENDBRANCH  46  51
ENDBRANCH  37  43
BRANCH  38  53
ATOM     53  O   UNL d   1      17.527  33.120  21.799  0.00  0.00    -0.392 OA
ATOM     54  H   UNL d   1      17.440  32.725  22.268  0.00  0.00     0.210 HD
ENDBRANCH  38  53
BRANCH  40  55
ATOM     55  O   UNL d   1      20.392  31.821  19.922  0.00  0.00    -0.360 OA
ATOM     56  H   UNL d   1      20.962  31.676  19.725  0.00  0.00     0.217 HD
ENDBRANCH  40  55
BRANCH  42  57
ATOM     57  O   UNL d   1      18.454  31.222  16.893  0.00  0.00    -0.360 OA
ATOM     58  H   UNL d   1      18.608  31.515  16.368  0.00  0.00     0.217 HD
ENDBRANCH  42  57
ENDBRANCH  17  33
BRANCH  19  59
ATOM     59  O   UNL d   1      16.792  30.043  18.029  0.00  0.00    -0.392 OA
ATOM     60  H   UNL d   1      16.564  29.481  17.904  0.00  0.00     0.210 HD
ENDBRANCH  19  59
BRANCH  22  61
ATOM     61  C   UNL d   1      15.180  29.981  16.698  0.00  0.00    -0.024 A 
ATOM     62  C   UNL d   1      15.375  29.197  16.109  0.00  0.00     0.049 A 
ATOM     63  C   UNL d   1      14.757  28.411  16.103  0.00  0.00     0.099 A 
ATOM     64  C   UNL d   1      13.945  28.409  16.686  0.00  0.00     0.098 A 
ATOM     65  C   UNL d   1      13.750  29.193  17.275  0.00  0.00     0.040 A 
ATOM     66  C   UNL d   1      14.368  29.980  17.281  0.00  0.00     0.013 A 
BRANCH  63  67
ATOM     67  O   UNL d   1      14.951  27.626  15.514  0.00  0.00    -0.358 OA
ATOM     68  H   UNL d   1      14.506  27.213  15.391  0.00  0.00     0.217 HD
ENDBRANCH  63  67
BRANCH  64  69
ATOM     69  O   UNL d   1      13.326  27.623  16.680  0.00  0.00    -0.358 OA
ATOM     70  H   UNL d   1      12.769  27.665  16.948  0.00  0.00     0.217 HD
ENDBRANCH  64  69
ENDBRANCH  22  61
BRANCH  16  71
ATOM     71  C   UNL d   1      20.034  34.250  18.007  0.00  0.00     0.010 A 
ATOM     72  C   UNL d   1      19.936  34.717  18.886  0.00  0.00     0.052 A 
ATOM     73  C   UNL d   1      20.715  34.780  19.508  0.00  0.00     0.099 A 
ATOM     74  C   UNL d   1      21.594  34.377  19.252  0.00  0.00     0.098 A 
ATOM     75  C   UNL d   1      21.692  33.910  18.373  0.00  0.00     0.040 A 
ATOM     76  C   UNL d   1      20.912  33.847  17.751  0.00  0.00     0.015 A 
BRANCH  73  77
ATOM     77  O   UNL d   1      20.617  35.247  20.387  0.00  0.00    -0.358 OA
ATOM     78  H   UNL d   1      20.457  34.925  20.892  0.00  0.00     0.217 HD
ENDBRANCH  73  77
BRANCH  74  79
ATOM     79  O   UNL d   1      22.375  34.440  19.874  0.00  0.00    -0.358 OA
ATOM     80  H   UNL d   1      22.952  34.404  19.652  0.00  0.00     0.217 HD
ENDBRANCH  74  79
ENDBRANCH  16  71
BRANCH  10  81
ATOM     81  O   UNL d   1      19.870  35.488  17.048  0.00  0.00    -0.389 OA
ATOM     82  H   UNL d   1      20.399  35.798  16.951  0.00  0.00     0.210 HD
ENDBRANCH  10  81
BRANCH  13  83
ATOM     83  O   UNL d   1      15.577  36.025  13.037  0.00  0.00    -0.389 OA
ATOM     84  H   UNL d   1      15.899  36.067  12.509  0.00  0.00     0.210 HD
ENDBRANCH  13  83
BRANCH  25  85
ATOM     85  O   UNL d   1      17.974  36.453  14.795  0.00  0.00    -0.360 OA
ATOM     86  H   UNL d   1      17.914  36.903  14.373  0.00  0.00     0.217 HD
ENDBRANCH  25  85
BRANCH  15  87
ATOM     87  C   UNL d   1      14.461  34.697  12.965  0.00  0.00     0.010 A 
ATOM     88  C   UNL d   1      13.751  35.366  13.188  0.00  0.00     0.052 A 
ATOM     89  C   UNL d   1      13.441  36.015  12.493  0.00  0.00     0.099 A 
ATOM     90  C   UNL d   1      13.840  35.996  11.577  0.00  0.00     0.098 A 
ATOM     91  C   UNL d   1      14.550  35.328  11.354  0.00  0.00     0.040 A 
ATOM     92  C   UNL d   1      14.860  34.678  12.048  0.00  0.00     0.015 A 
BRANCH  89  93
ATOM     93  O   UNL d   1      12.731  36.684  12.716  0.00  0.00    -0.358 OA
ATOM     94  H   UNL d   1      12.696  37.215  12.398  0.00  0.00     0.217 HD
ENDBRANCH  89  93
BRANCH  90  95
ATOM     95  O   UNL d   1      13.529  36.645  10.883  0.00  0.00    -0.358 OA
ATOM     96  H   UNL d   1      13.825  37.186  10.809  0.00  0.00     0.217 HD
ENDBRANCH  90  95
ENDBRANCH  15  87
BRANCH  26  97
ATOM     97  O   UNL d   1      14.825  31.207  15.584  0.00  0.00    -0.360 OA
ATOM     98  H   UNL d   1      14.735  30.777  16.023  0.00  0.00     0.217 HD
ENDBRANCH  26  97
BRANCH  31  99
ATOM     99  O   UNL d   1      20.681  38.040  16.050  0.00  0.00    -0.361 OA
ATOM    100  H   UNL d   1      21.196  38.037  16.398  0.00  0.00     0.217 HD
ENDBRANCH  31  99
BRANCH  32 101
ATOM    101  O   UNL d   1      11.940  30.148  13.828  0.00  0.00    -0.361 OA
ATOM    102  H   UNL d   1      11.447  30.298  13.483  0.00  0.00     0.217 HD
ENDBRANCH  32 101
TORSDOF 23
ENDMDL
MODEL 3
REMARK VINA RESULT:    -9.404      2.869      8.660
REMARK INTER + INTRA:          53.245
REMARK INTER:                 -17.108
REMARK INTRA:                  70.352
REMARK UNBOUND:                70.345
REMARK  23 active torsions:
REMARK  status: ('A' for Active; 'I' for Inactive)
REMARK    1  A    between atoms: C_29  and  O_6 
REMARK    2  A    between atoms: C_32  and  O_7 
REMARK    3  A    between atoms: C_38  and  O_8 
REMARK    4  A    between atoms: O_10  and  C_47 
REMARK    5  A    between atoms: O_11  and  C_48 
REMARK    6  A    between atoms: O_12  and  C_51 
REMARK    7  A    between atoms: O_13  and  C_62 
REMARK    8  A    between atoms: O_14  and  C_63 
REMARK    9  A    between atoms: C_65  and  O_15 
REMARK   10  A    between atoms: O_16  and  C_69 
REMARK   11  A    between atoms: O_17  and  C_70 
REMARK   12  A    between atoms: O_18  and  C_71 
REMARK   13  A    between atoms: O_19  and  C_74 
REMARK   14  A    between atoms: O_20  and  C_75 
REMARK   15  A    between atoms: O_21  and  C_76 
REMARK   16  A    between atoms: O_22  and  C_79 
REMARK   17  A    between atoms: O_23  and  C_82 
REMARK   18  A    between atoms: O_24  and  C_84 
REMARK   19  A    between atoms: C_34  and  C_45 
REMARK   20  A    between atoms: C_35  and  C_46 
REMARK   21  A    between atoms: C_36  and  C_42 
REMARK   22  A    between atoms: C_41  and  C_49 
REMARK   23  A    between atoms: C_64  and  C_77 
ROOT
ATOM      1  O   UNL d   1      15.335  34.209  20.938  0.00  0.00    -0.305 OA
ATOM      2  O   UNL d   1      18.445  34.055  18.934  0.00  0.00    -0.305 OA
ATOM      3  O   UNL d   1      15.267  32.452  17.972  0.00  0.00    -0.337 OA
ATOM      4  O   UNL d   1      19.497  35.217  20.333  0.00  0.00    -0.306 OA
ATOM      5  O   UNL d   1      12.222  32.820  20.306  0.00  0.00    -0.306 OA
ATOM      6  C   UNL d   1      17.490  34.788  20.723  0.00  0.00     0.097 A 
ATOM      7  C   UNL d   1      14.009  33.232  20.010  0.00  0.00     0.097 A 
ATOM      8  C   UNL d   1      16.942  34.189  20.004  0.00  0.00     0.022 A 
ATOM      9  C   UNL d   1      15.416  33.413  19.532  0.00  0.00     0.021 A 
ATOM     10  C   UNL d   1      18.534  35.022  20.539  0.00  0.00     0.199 A 
ATOM     11  C   UNL d   1      15.940  33.964  20.181  0.00  0.00     0.092 A 
ATOM     12  C   UNL d   1      16.857  33.260  18.464  0.00  0.00     0.021 A 
ATOM     13  C   UNL d   1      13.700  34.156  21.763  0.00  0.00     0.199 A 
ATOM     14  C   UNL d   1      17.403  33.834  19.141  0.00  0.00     0.092 A 
ATOM     15  C   UNL d   1      13.417  33.485  20.775  0.00  0.00     0.231 A 
ATOM     16  C   UNL d   1      19.015  34.653  19.639  0.00  0.00     0.231 A 
ATOM     17  C   UNL d   1      17.337  32.891  17.564  0.00  0.00     0.094 A 
ATOM     18  C   UNL d   1      15.856  33.048  18.662  0.00  0.00     0.089 A 
ATOM     19  C   UNL d   1      16.767  32.293  16.861  0.00  0.00     0.165 A 
ATOM     20  C   UNL d   1      18.054  35.345  21.360  0.00  0.00     0.020 A 
ATOM     21  C   UNL d   1      13.180  32.410  19.068  0.00  0.00     0.020 A 
ATOM     22  C   UNL d   1      15.726  32.073  17.066  0.00  0.00     0.192 A 
ATOM     23  C   UNL d   1      19.031  35.554  21.171  0.00  0.00     0.085 A 
ATOM     24  C   UNL d   1      12.255  32.324  19.438  0.00  0.00     0.085 A 
ATOM     25  C   UNL d   1      17.661  35.685  22.162  0.00  0.00     0.078 A 
ATOM     26  C   UNL d   1      13.437  31.964  18.162  0.00  0.00     0.078 A 
ATOM     27  C   UNL d   1      19.516  36.082  21.802  0.00  0.00     0.074 A 
ATOM     28  C   UNL d   1      11.523  31.786  18.929  0.00  0.00     0.074 A 
ATOM     29  C   UNL d   1      18.175  36.210  22.772  0.00  0.00     0.073 A 
ATOM     30  C   UNL d   1      12.720  31.422  17.635  0.00  0.00     0.073 A 
ATOM     31  C   UNL d   1      19.093  36.407  22.594  0.00  0.00     0.071 A 
ATOM     32  C   UNL d   1      11.757  31.332  18.021  0.00  0.00     0.071 A 
ENDROOT
BRANCH  17  33
ATOM     33  C   UNL d   1      18.298  33.101  17.385  0.00  0.00     0.020 A 
ATOM     34  C   UNL d   1      18.541  33.910  16.850  0.00  0.00     0.088 A 
ATOM     35  O   UNL d   1      17.783  34.524  16.486  0.00  0.00    -0.337 OA
ATOM     36  C   UNL d   1      19.502  34.121  16.670  0.00  0.00     0.012 A 
ATOM     37  C   UNL d   1      18.029  35.369  15.927  0.00  0.00     0.191 A 
ATOM     38  C   UNL d   1      19.029  35.588  15.740  0.00  0.00     0.156 A 
ATOM     39  C   UNL d   1      19.771  34.960  16.115  0.00  0.00     0.079 A 
ATOM     40  C   UNL d   1      20.220  33.522  17.026  0.00  0.00     0.077 A 
ATOM     41  C   UNL d   1      19.977  32.713  17.561  0.00  0.00     0.074 A 
ATOM     42  C   UNL d   1      19.016  32.503  17.741  0.00  0.00     0.078 A 
BRANCH  37  43
ATOM     43  C   UNL d   1      17.308  35.965  15.573  0.00  0.00    -0.024 A 
ATOM     44  C   UNL d   1      17.323  36.943  15.779  0.00  0.00     0.049 A 
ATOM     45  C   UNL d   1      16.602  37.540  15.426  0.00  0.00     0.099 A 
ATOM     46  C   UNL d   1      15.866  37.157  14.866  0.00  0.00     0.098 A 
ATOM     47  C   UNL d   1      15.852  36.180  14.660  0.00  0.00     0.040 A 
ATOM     48  C   UNL d   1      16.573  35.582  15.014  0.00  0.00     0.013 A 
BRANCH  45  49
ATOM     49  O   UNL d   1      16.617  38.518  15.632  0.00  0.00    -0.358 OA
ATOM     50  H   UNL d   1      16.978  38.899  15.301  0.00  0.00     0.217 HD
ENDBRANCH  45  49
BRANCH  46  51
ATOM     51  O   UNL d   1      15.146  37.754  14.512  0.00  0.00    -0.358 OA
ATOM     52  H   UNL d   1      14.690  37.516  14.164  0.00  0.00     0.217 HD
ENDBRANCH  46  51
ENDBRANCH  37  43
BRANCH  38  53
ATOM     53  O   UNL d   1      19.277  36.396  15.206  0.00  0.00    -0.392 OA
ATOM     54  H   UNL d   1      19.353  36.943  15.487  0.00  0.00     0.210 HD
ENDBRANCH  38  53
BRANCH  40  55
ATOM     55  O   UNL d   1      21.181  33.732  16.847  0.00  0.00    -0.360 OA
ATOM     56  H   UNL d   1      21.528  33.341  16.512  0.00  0.00     0.217 HD
ENDBRANCH  40  55
BRANCH  42  57
ATOM     57  O   UNL d   1      18.207  32.027  18.085  0.00  0.00    -0.360 OA
ATOM     58  H   UNL d   1      17.680  32.340  18.180  0.00  0.00     0.217 HD
ENDBRANCH  42  57
ENDBRANCH  17  33
BRANCH  19  59
ATOM     59  O   UNL d   1      17.200  31.948  16.028  0.00  0.00    -0.392 OA
ATOM     60  H   UNL d   1      17.643  32.280  15.748  0.00  0.00     0.210 HD
ENDBRANCH  19  59
BRANCH  22  61
ATOM     61  C   UNL d   1      15.191  31.522  16.423  0.00  0.00    -0.024 A 
ATOM     62  C   UNL d   1      14.698  31.966  15.675  0.00  0.00     0.049 A 
ATOM     63  C   UNL d   1      14.164  31.415  15.033  0.00  0.00     0.099 A 
ATOM     64  C   UNL d   1      14.124  30.422  15.140  0.00  0.00     0.098 A 
ATOM     65  C   UNL d   1      14.617  29.979  15.888  0.00  0.00     0.040 A 
ATOM     66  C   UNL d   1      15.151  30.529  16.530  0.00  0.00     0.013 A 
BRANCH  63  67
ATOM     67  O   UNL d   1      13.671  31.858  14.285  0.00  0.00    -0.358 OA
ATOM     68  H   UNL d   1      13.899  32.372  14.024  0.00  0.00     0.217 HD
ENDBRANCH  63  67
BRANCH  64  69
ATOM     69  O   UNL d   1      13.590  29.872  14.498  0.00  0.00    -0.358 OA
ATOM     70  H   UNL d   1      13.403  30.116  13.960  0.00  0.00     0.217 HD
ENDBRANCH  64  69
ENDBRANCH  22  61
BRANCH  16  71
ATOM     71  C   UNL d   1      19.977  34.876  19.482  0.00  0.00     0.010 A 
ATOM     72  C   UNL d   1      20.224  35.739  19.040  0.00  0.00     0.052 A 
ATOM     73  C   UNL d   1      21.186  35.962  18.883  0.00  0.00     0.099 A 
ATOM     74  C   UNL d   1      21.900  35.323  19.167  0.00  0.00     0.098 A 
ATOM     75  C   UNL d   1      21.653  34.460  19.609  0.00  0.00     0.040 A 
ATOM     76  C   UNL d   1      20.691  34.237  19.766  0.00  0.00     0.015 A 
BRANCH  73  77
ATOM     77  O   UNL d   1      21.433  36.824  18.442  0.00  0.00    -0.358 OA
ATOM     78  H   UNL d   1      21.065  37.320  18.502  0.00  0.00     0.217 HD
ENDBRANCH  73  77
BRANCH  74  79
ATOM     79  O   UNL d   1      22.863  35.545  19.010  0.00  0.00    -0.358 OA
ATOM     80  H   UNL d   1      23.238  35.128  18.747  0.00  0.00     0.217 HD
ENDBRANCH  74  79
ENDBRANCH  16  71
BRANCH  10  81
ATOM     81  O   UNL d   1      19.387  35.464  20.817  0.00  0.00    -0.389 OA
ATOM     82  H   UNL d   1      19.721  35.767  21.243  0.00  0.00     0.210 HD
ENDBRANCH  10  81
BRANCH  13  83
ATOM     83  O   UNL d   1      13.818  34.685  22.603  0.00  0.00    -0.389 OA
ATOM     84  H   UNL d   1      14.279  35.098  22.648  0.00  0.00     0.210 HD
ENDBRANCH  13  83
BRANCH  25  85
ATOM     85  O   UNL d   1      16.702  35.490  22.364  0.00  0.00    -0.360 OA
ATOM     86  H   UNL d   1      16.263  35.900  22.212  0.00  0.00     0.217 HD
ENDBRANCH  25  85
BRANCH  15  87
ATOM     87  C   UNL d   1      12.825  33.739  21.540  0.00  0.00     0.010 A 
ATOM     88  C   UNL d   1      12.708  33.112  22.311  0.00  0.00     0.052 A 
ATOM     89  C   UNL d   1      12.116  33.366  23.076  0.00  0.00     0.099 A 
ATOM     90  C   UNL d   1      11.641  34.245  23.070  0.00  0.00     0.098 A 
ATOM     91  C   UNL d   1      11.757  34.872  22.299  0.00  0.00     0.040 A 
ATOM     92  C   UNL d   1      12.349  34.619  21.534  0.00  0.00     0.015 A 
BRANCH  89  93
ATOM     93  O   UNL d   1      12.000  32.740  23.847  0.00  0.00    -0.358 OA
ATOM     94  H   UNL d   1      12.467  32.372  24.021  0.00  0.00     0.217 HD
ENDBRANCH  89  93
BRANCH  90  95
ATOM     95  O   UNL d   1      11.049  34.499  23.835  0.00  0.00    -0.358 OA
ATOM     96  H   UNL d   1      10.521  34.809  23.730  0.00  0.00     0.217 HD
ENDBRANCH  90  95
ENDBRANCH  15  87
BRANCH  26  97
ATOM     97  O   UNL d   1      14.364  32.057  17.801  0.00  0.00    -0.360 OA
ATOM     98  H   UNL d   1      14.479  31.930  17.205  0.00  0.00     0.217 HD
ENDBRANCH  26  97
BRANCH  31  99
ATOM     99  O   UNL d   1      19.617  36.957  23.243  0.00  0.00    -0.361 OA
ATOM    100  H   UNL d   1      20.228  37.032  23.165  0.00  0.00     0.217 HD
ENDBRANCH  31  99
BRANCH  32 101
ATOM    101  O   UNL d   1      11.062  30.814  17.523  0.00  0.00    -0.361 OA
ATOM    102  H   UNL d   1      11.176  30.617  16.947  0.00  0.00     0.217 HD
ENDBRANCH  32 101
TORSDOF 23
ENDMDL
MODEL 4
REMARK VINA RESULT:    -9.271      3.560      8.734
REMARK INTER + INTRA:          53.487
REMARK INTER:                 -16.580
REMARK INTRA:                  70.066
REMARK UNBOUND:                70.345
REMARK  23 active torsions:
REMARK  status: ('A' for Active; 'I' for Inactive)
REMARK    1  A    between atoms: C_29  and  O_6 
REMARK    2  A    between atoms: C_32  and  O_7 
REMARK    3  A    between atoms: C_38  and  O_8 
REMARK    4  A    between atoms: O_10  and  C_47 
REMARK    5  A    between atoms: O_11  and  C_48 
REMARK    6  A    between atoms: O_12  and  C_51 
REMARK    7  A    between atoms: O_13  and  C_62 
REMARK    8  A    between atoms: O_14  and  C_63 
REMARK    9  A    between atoms: C_65  and  O_15 
REMARK   10  A    between atoms: O_16  and  C_69 
REMARK   11  A    between atoms: O_17  and  C_70 
REMARK   12  A    between atoms: O_18  and  C_71 
REMARK   13  A    between atoms: O_19  and  C_74 
REMARK   14  A    between atoms: O_20  and  C_75 
REMARK   15  A    between atoms: O_21  and  C_76 
REMARK   16  A    between atoms: O_22  and  C_79 
REMARK   17  A    between atoms: O_23  and  C_82 
REMARK   18  A    between atoms: O_24  and  C_84 
REMARK   19  A    between atoms: C_34  and  C_45 
REMARK   20  A    between atoms: C_35  and  C_46 
REMARK   21  A    between atoms: C_36  and  C_42 
REMARK   22  A    between atoms: C_41  and  C_49 
REMARK   23  A    between atoms: C_64  and  C_77 
ROOT
ATOM      1  O   UNL d   1      15.853  36.154  14.676  0.00  0.00    -0.305 OA
ATOM      2  O   UNL d   1      17.560  33.686  16.846  0.00  0.00    -0.305 OA
ATOM      3  O   UNL d   1      14.168  33.251  15.465  0.00  0.00    -0.337 OA
ATOM      4  O   UNL d   1      19.273  34.891  17.003  0.00  0.00    -0.306 OA
ATOM      5  O   UNL d   1      12.701  36.032  13.237  0.00  0.00    -0.306 OA
ATOM      6  C   UNL d   1      17.678  35.597  15.853  0.00  0.00     0.097 A 
ATOM      7  C   UNL d   1      14.150  35.455  14.246  0.00  0.00     0.097 A 
ATOM      8  C   UNL d   1      16.790  34.978  15.769  0.00  0.00     0.022 A 
ATOM      9  C   UNL d   1      15.156  34.760  15.108  0.00  0.00     0.021 A 
ATOM     10  C   UNL d   1      18.517  35.248  16.446  0.00  0.00     0.199 A 
ATOM     11  C   UNL d   1      15.984  35.313  15.200  0.00  0.00     0.092 A 
ATOM     12  C   UNL d   1      15.871  33.479  16.153  0.00  0.00     0.021 A 
ATOM     13  C   UNL d   1      14.831  37.227  13.598  0.00  0.00     0.199 A 
ATOM     14  C   UNL d   1      16.733  34.056  16.248  0.00  0.00     0.092 A 
ATOM     15  C   UNL d   1      14.035  36.302  13.726  0.00  0.00     0.231 A 
ATOM     16  C   UNL d   1      18.459  34.286  16.946  0.00  0.00     0.231 A 
ATOM     17  C   UNL d   1      15.811  32.517  16.652  0.00  0.00     0.094 A 
ATOM     18  C   UNL d   1      15.077  33.834  15.579  0.00  0.00     0.089 A 
ATOM     19  C   UNL d   1      14.912  31.918  16.552  0.00  0.00     0.165 A 
ATOM     20  C   UNL d   1      18.534  36.131  15.969  0.00  0.00     0.020 A 
ATOM     21  C   UNL d   1      12.887  34.662  14.078  0.00  0.00     0.020 A 
ATOM     22  C   UNL d   1      14.086  32.287  15.955  0.00  0.00     0.192 A 
ATOM     23  C   UNL d   1      19.311  35.789  16.528  0.00  0.00     0.085 A 
ATOM     24  C   UNL d   1      12.257  35.175  13.495  0.00  0.00     0.085 A 
ATOM     25  C   UNL d   1      18.619  36.982  15.542  0.00  0.00     0.078 A 
ATOM     26  C   UNL d   1      12.623  33.732  14.463  0.00  0.00     0.078 A 
ATOM     27  C   UNL d   1      20.094  36.331  16.604  0.00  0.00     0.074 A 
ATOM     28  C   UNL d   1      11.318  34.792  13.257  0.00  0.00     0.074 A 
ATOM     29  C   UNL d   1      19.416  37.499  15.639  0.00  0.00     0.073 A 
ATOM     30  C   UNL d   1      11.689  33.329  14.238  0.00  0.00     0.073 A 
ATOM     31  C   UNL d   1      20.146  37.177  16.165  0.00  0.00     0.071 A 
ATOM     32  C   UNL d   1      11.032  33.863  13.631  0.00  0.00     0.071 A 
ENDROOT
BRANCH  17  33
ATOM     33  C   UNL d   1      16.579  32.188  17.200  0.00  0.00     0.020 A 
ATOM     34  C   UNL d   1      16.588  32.338  18.189  0.00  0.00     0.088 A 
ATOM     35  O   UNL d   1      15.791  32.840  18.633  0.00  0.00    -0.337 OA
ATOM     36  C   UNL d   1      17.356  32.008  18.738  0.00  0.00     0.012 A 
ATOM     37  C   UNL d   1      15.794  33.000  19.662  0.00  0.00     0.191 A 
ATOM     38  C   UNL d   1      16.593  32.657  20.234  0.00  0.00     0.156 A 
ATOM     39  C   UNL d   1      17.380  32.157  19.768  0.00  0.00     0.079 A 
ATOM     40  C   UNL d   1      18.115  31.528  18.298  0.00  0.00     0.077 A 
ATOM     41  C   UNL d   1      18.106  31.377  17.309  0.00  0.00     0.074 A 
ATOM     42  C   UNL d   1      17.338  31.707  16.760  0.00  0.00     0.078 A 
BRANCH  37  43
ATOM     43  C   UNL d   1      15.033  33.482  20.098  0.00  0.00    -0.024 A 
ATOM     44  C   UNL d   1      14.169  33.005  20.261  0.00  0.00     0.049 A 
ATOM     45  C   UNL d   1      13.407  33.485  20.697  0.00  0.00     0.099 A 
ATOM     46  C   UNL d   1      13.511  34.442  20.970  0.00  0.00     0.098 A 
ATOM     47  C   UNL d   1      14.375  34.918  20.807  0.00  0.00     0.040 A 
ATOM     48  C   UNL d   1      15.137  34.438  20.371  0.00  0.00     0.013 A 
BRANCH  45  49
ATOM     49  O   UNL d   1      12.544  33.009  20.859  0.00  0.00    -0.358 OA
ATOM     50  H   UNL d   1      12.531  32.502  21.215  0.00  0.00     0.217 HD
ENDBRANCH  45  49
BRANCH  46  51
ATOM     51  O   UNL d   1      12.750  34.923  21.405  0.00  0.00    -0.358 OA
ATOM     52  H   UNL d   1      12.823  35.173  21.968  0.00  0.00     0.217 HD
ENDBRANCH  46  51
ENDBRANCH  37  43
BRANCH  38  53
ATOM     53  O   UNL d   1      16.607  32.805  21.223  0.00  0.00    -0.392 OA
ATOM     54  H   UNL d   1      16.727  33.369  21.450  0.00  0.00     0.210 HD
ENDBRANCH  38  53
BRANCH  40  55
ATOM     55  O   UNL d   1      18.884  31.197  18.847  0.00  0.00    -0.360 OA
ATOM     56  H   UNL d   1      18.867  31.245  19.465  0.00  0.00     0.217 HD
ENDBRANCH  40  55
BRANCH  42  57
ATOM     57  O   UNL d   1      16.764  31.892  15.962  0.00  0.00    -0.360 OA
ATOM     58  H   UNL d   1      16.327  31.486  15.795  0.00  0.00     0.217 HD
ENDBRANCH  42  57
ENDBRANCH  17  33
BRANCH  19  59
ATOM     59  O   UNL d   1      14.847  31.030  17.008  0.00  0.00    -0.392 OA
ATOM     60  H   UNL d   1      14.742  31.002  17.618  0.00  0.00     0.210 HD
ENDBRANCH  19  59
BRANCH  22  61
ATOM     61  C   UNL d   1      13.253  31.742  15.856  0.00  0.00    -0.024 A 
ATOM     62  C   UNL d   1      13.174  31.081  15.110  0.00  0.00     0.049 A 
ATOM     63  C   UNL d   1      12.340  30.536  15.011  0.00  0.00     0.099 A 
ATOM     64  C   UNL d   1      11.588  30.652  15.659  0.00  0.00     0.098 A 
ATOM     65  C   UNL d   1      11.667  31.312  16.405  0.00  0.00     0.040 A 
ATOM     66  C   UNL d   1      12.501  31.858  16.504  0.00  0.00     0.013 A 
BRANCH  63  67
ATOM     67  O   UNL d   1      12.260  29.875  14.265  0.00  0.00    -0.358 OA
ATOM     68  H   UNL d   1      11.947  30.024  13.751  0.00  0.00     0.217 HD
ENDBRANCH  63  67
BRANCH  64  69
ATOM     69  O   UNL d   1      10.755  30.107  15.561  0.00  0.00    -0.358 OA
ATOM     70  H   UNL d   1      10.332  30.104  16.014  0.00  0.00     0.217 HD
ENDBRANCH  64  69
ENDBRANCH  22  61
BRANCH  16  71
ATOM     71  C   UNL d   1      19.239  33.978  17.488  0.00  0.00     0.010 A 
ATOM     72  C   UNL d   1      19.319  34.247  18.448  0.00  0.00     0.052 A 
ATOM     73  C   UNL d   1      20.100  33.938  18.990  0.00  0.00     0.099 A 
ATOM     74  C   UNL d   1      20.801  33.360  18.573  0.00  0.00     0.098 A 
ATOM     75  C   UNL d   1      20.722  33.091  17.613  0.00  0.00     0.040 A 
ATOM     76  C   UNL d   1      19.941  33.399  17.071  0.00  0.00     0.015 A 
BRANCH  73  77
ATOM     77  O   UNL d   1      20.180  34.208  19.950  0.00  0.00    -0.358 OA
ATOM     78  H   UNL d   1      19.914  33.862  20.391  0.00  0.00     0.217 HD
ENDBRANCH  73  77
BRANCH  74  79
ATOM     79  O   UNL d   1      21.583  33.051  19.116  0.00  0.00    -0.358 OA
ATOM     80  H   UNL d   1      21.493  32.816  19.682  0.00  0.00     0.217 HD
ENDBRANCH  74  79
ENDBRANCH  16  71
BRANCH  10  81
ATOM     81  O   UNL d   1      19.439  35.384  16.811  0.00  0.00    -0.389 OA
ATOM     82  H   UNL d   1      19.885  35.763  17.016  0.00  0.00     0.210 HD
ENDBRANCH  10  81
BRANCH  13  83
ATOM     83  O   UNL d   1      15.397  38.033  13.426  0.00  0.00    -0.389 OA
ATOM     84  H   UNL d   1      15.825  38.205  13.840  0.00  0.00     0.210 HD
ENDBRANCH  13  83
BRANCH  25  85
ATOM     85  O   UNL d   1      17.865  37.335  14.988  0.00  0.00    -0.360 OA
ATOM     86  H   UNL d   1      17.683  37.029  14.482  0.00  0.00     0.217 HD
ENDBRANCH  25  85
BRANCH  15  87
ATOM     87  C   UNL d   1      13.920  37.148  13.206  0.00  0.00     0.010 A 
ATOM     88  C   UNL d   1      13.462  37.933  13.625  0.00  0.00     0.052 A 
ATOM     89  C   UNL d   1      13.347  38.780  13.105  0.00  0.00     0.099 A 
ATOM     90  C   UNL d   1      13.690  38.841  12.167  0.00  0.00     0.098 A 
ATOM     91  C   UNL d   1      14.147  38.056  11.749  0.00  0.00     0.040 A 
ATOM     92  C   UNL d   1      14.262  37.210  12.269  0.00  0.00     0.015 A 
BRANCH  89  93
ATOM     93  O   UNL d   1      12.890  39.565  13.522  0.00  0.00    -0.358 OA
ATOM     94  H   UNL d   1      12.452  39.871  13.208  0.00  0.00     0.217 HD
ENDBRANCH  89  93
BRANCH  90  95
ATOM     95  O   UNL d   1      13.575  39.688  11.648  0.00  0.00    -0.358 OA
ATOM     96  H   UNL d   1      13.009  39.865  11.464  0.00  0.00     0.217 HD
ENDBRANCH  90  95
ENDBRANCH  15  87
BRANCH  26  97
ATOM     97  O   UNL d   1      13.261  33.228  15.044  0.00  0.00    -0.360 OA
ATOM     98  H   UNL d   1      13.326  33.383  15.642  0.00  0.00     0.217 HD
ENDBRANCH  26  97
BRANCH  31  99
ATOM     99  O   UNL d   1      20.973  37.730  16.256  0.00  0.00    -0.361 OA
ATOM    100  H   UNL d   1      20.947  38.283  16.536  0.00  0.00     0.217 HD
ENDBRANCH  31  99
BRANCH  32 101
ATOM    101  O   UNL d   1      10.133  33.485  13.409  0.00  0.00    -0.361 OA
ATOM    102  H   UNL d   1       9.620  33.779  13.593  0.00  0.00     0.217 HD
ENDBRANCH  32 101
TORSDOF 23
ENDMDL
MODEL 5
REMARK VINA RESULT:    -9.251      1.958      6.246
REMARK INTER + INTRA:          53.523
REMARK INTER:                 -16.371
REMARK INTRA:                  69.893
REMARK UNBOUND:                70.345
REMARK  23 active torsions:
REMARK  status: ('A' for Active; 'I' for Inactive)
REMARK    1  A    between atoms: C_29  and  O_6 
REMARK    2  A    between atoms: C_32  and  O_7 
REMARK    3  A    between atoms: C_38  and  O_8 
REMARK    4  A    between atoms: O_10  and  C_47 
REMARK    5  A    between atoms: O_11  and  C_48 
REMARK    6  A    between atoms: O_12  and  C_51 
REMARK    7  A    between atoms: O_13  and  C_62 
REMARK    8  A    between atoms: O_14  and  C_63 
REMARK    9  A    between atoms: C_65  and  O_15 
REMARK   10  A    between atoms: O_16  and  C_69 
REMARK   11  A    between atoms: O_17  and  C_70 
REMARK   12  A    between atoms: O_18  and  C_71 
REMARK   13  A    between atoms: O_19  and  C_74 
REMARK   14  A    between atoms: O_20  and  C_75 
REMARK   15  A    between atoms: O_21  and  C_76 
REMARK   16  A    between atoms: O_22  and  C_79 
REMARK   17  A    between atoms: O_23  and  C_82 
REMARK   18  A    between atoms: O_24  and  C_84 
REMARK   19  A    between atoms: C_34  and  C_45 
REMARK   20  A    between atoms: C_35  and  C_46 
REMARK   21  A    between atoms: C_36  and  C_42 
REMARK   22  A    between atoms: C_41  and  C_49 
REMARK   23  A    between atoms: C_64  and  C_77 
ROOT
ATOM      1  O   UNL d   1      21.197  34.110  20.398  0.00  0.00    -0.305 OA
ATOM      2  O   UNL d   1      19.422  30.861  20.296  0.00  0.00    -0.305 OA
ATOM      3  O   UNL d   1      19.199  33.439  17.669  0.00  0.00    -0.337 OA
ATOM      4  O   UNL d   1      20.226  30.274  22.146  0.00  0.00    -0.306 OA
ATOM      5  O   UNL d   1      21.188  36.711  18.106  0.00  0.00    -0.306 OA
ATOM      6  C   UNL d   1      20.761  32.148  21.392  0.00  0.00     0.097 A 
ATOM      7  C   UNL d   1      20.748  35.056  18.823  0.00  0.00     0.097 A 
ATOM      8  C   UNL d   1      20.348  32.457  20.437  0.00  0.00     0.022 A 
ATOM      9  C   UNL d   1      20.235  33.692  19.166  0.00  0.00     0.021 A 
ATOM     10  C   UNL d   1      20.496  31.179  21.801  0.00  0.00     0.199 A 
ATOM     11  C   UNL d   1      20.603  33.387  20.045  0.00  0.00     0.092 A 
ATOM     12  C   UNL d   1      19.318  32.152  18.993  0.00  0.00     0.021 A 
ATOM     13  C   UNL d   1      21.975  35.761  20.244  0.00  0.00     0.199 A 
ATOM     14  C   UNL d   1      19.702  31.836  19.908  0.00  0.00     0.092 A 
ATOM     15  C   UNL d   1      21.345  35.769  19.191  0.00  0.00     0.231 A 
ATOM     16  C   UNL d   1      19.822  30.530  21.250  0.00  0.00     0.231 A 
ATOM     17  C   UNL d   1      18.644  31.505  18.441  0.00  0.00     0.094 A 
ATOM     18  C   UNL d   1      19.586  33.087  18.619  0.00  0.00     0.089 A 
ATOM     19  C   UNL d   1      18.245  31.836  17.488  0.00  0.00     0.165 A 
ATOM     20  C   UNL d   1      21.116  31.806  22.281  0.00  0.00     0.020 A 
ATOM     21  C   UNL d   1      20.222  35.557  17.511  0.00  0.00     0.020 A 
ATOM     22  C   UNL d   1      18.524  32.809  17.100  0.00  0.00     0.192 A 
ATOM     23  C   UNL d   1      20.856  30.894  22.648  0.00  0.00     0.085 A 
ATOM     24  C   UNL d   1      20.597  36.467  17.337  0.00  0.00     0.085 A 
ATOM     25  C   UNL d   1      21.711  32.352  22.792  0.00  0.00     0.078 A 
ATOM     26  C   UNL d   1      19.574  35.107  16.831  0.00  0.00     0.078 A 
ATOM     27  C   UNL d   1      21.218  30.620  23.489  0.00  0.00     0.074 A 
ATOM     28  C   UNL d   1      20.351  36.990  16.470  0.00  0.00     0.074 A 
ATOM     29  C   UNL d   1      22.054  32.046  23.629  0.00  0.00     0.073 A 
ATOM     30  C   UNL d   1      19.314  35.611  15.957  0.00  0.00     0.073 A 
ATOM     31  C   UNL d   1      21.811  31.190  23.974  0.00  0.00     0.071 A 
ATOM     32  C   UNL d   1      19.705  36.559  15.776  0.00  0.00     0.071 A 
ENDROOT
BRANCH  17  33
ATOM     33  C   UNL d   1      18.394  30.610  18.809  0.00  0.00     0.020 A 
ATOM     34  C   UNL d   1      17.570  30.512  19.369  0.00  0.00     0.088 A 
ATOM     35  O   UNL d   1      16.985  31.352  19.559  0.00  0.00    -0.337 OA
ATOM     36  C   UNL d   1      17.319  29.618  19.737  0.00  0.00     0.012 A 
ATOM     37  C   UNL d   1      16.125  31.258  20.141  0.00  0.00     0.191 A 
ATOM     38  C   UNL d   1      15.864  30.327  20.525  0.00  0.00     0.156 A 
ATOM     39  C   UNL d   1      16.465  29.500  20.321  0.00  0.00     0.079 A 
ATOM     40  C   UNL d   1      17.891  28.820  19.546  0.00  0.00     0.077 A 
ATOM     41  C   UNL d   1      18.715  28.917  18.987  0.00  0.00     0.074 A 
ATOM     42  C   UNL d   1      18.966  29.812  18.618  0.00  0.00     0.078 A 
BRANCH  37  43
ATOM     43  C   UNL d   1      15.556  32.059  20.330  0.00  0.00    -0.024 A 
ATOM     44  C   UNL d   1      15.784  32.666  21.090  0.00  0.00     0.049 A 
ATOM     45  C   UNL d   1      15.215  33.467  21.280  0.00  0.00     0.099 A 
ATOM     46  C   UNL d   1      14.418  33.659  20.708  0.00  0.00     0.098 A 
ATOM     47  C   UNL d   1      14.190  33.052  19.947  0.00  0.00     0.040 A 
ATOM     48  C   UNL d   1      14.759  32.251  19.758  0.00  0.00     0.013 A 
BRANCH  45  49
ATOM     49  O   UNL d   1      15.444  34.073  22.040  0.00  0.00    -0.358 OA
ATOM     50  H   UNL d   1      15.898  34.491  21.978  0.00  0.00     0.217 HD
ENDBRANCH  45  49
BRANCH  46  51
ATOM     51  O   UNL d   1      13.849  34.460  20.896  0.00  0.00    -0.358 OA
ATOM     52  H   UNL d   1      13.798  34.673  21.477  0.00  0.00     0.217 HD
ENDBRANCH  46  51
ENDBRANCH  37  43
BRANCH  38  53
ATOM     53  O   UNL d   1      15.041  30.225  21.084  0.00  0.00    -0.392 OA
ATOM     54  H   UNL d   1      14.814  29.660  21.202  0.00  0.00     0.210 HD
ENDBRANCH  38  53
BRANCH  40  55
ATOM     55  O   UNL d   1      17.640  27.924  19.914  0.00  0.00    -0.360 OA
ATOM     56  H   UNL d   1      17.108  27.855  20.226  0.00  0.00     0.217 HD
ENDBRANCH  40  55
BRANCH  42  57
ATOM     57  O   UNL d   1      19.477  30.515  18.124  0.00  0.00    -0.360 OA
ATOM     58  H   UNL d   1      19.953  30.802  18.399  0.00  0.00     0.217 HD
ENDBRANCH  42  57
ENDBRANCH  17  33
BRANCH  19  59
ATOM     59  O   UNL d   1      17.623  31.247  16.972  0.00  0.00    -0.392 OA
ATOM     60  H   UNL d   1      17.202  31.498  16.592  0.00  0.00     0.210 HD
ENDBRANCH  19  59
BRANCH  22  61
ATOM     61  C   UNL d   1      18.162  33.124  16.222  0.00  0.00    -0.024 A 
ATOM     62  C   UNL d   1      18.664  32.937  15.378  0.00  0.00     0.049 A 
ATOM     63  C   UNL d   1      18.302  33.252  14.500  0.00  0.00     0.099 A 
ATOM     64  C   UNL d   1      17.437  33.753  14.468  0.00  0.00     0.098 A 
ATOM     65  C   UNL d   1      16.934  33.939  15.311  0.00  0.00     0.040 A 
ATOM     66  C   UNL d   1      17.297  33.625  16.189  0.00  0.00     0.013 A 
BRANCH  63  67
ATOM     67  O   UNL d   1      18.804  33.066  13.656  0.00  0.00    -0.358 OA
ATOM     68  H   UNL d   1      18.543  32.726  13.208  0.00  0.00     0.217 HD
ENDBRANCH  63  67
BRANCH  64  69
ATOM     69  O   UNL d   1      17.074  34.068  13.591  0.00  0.00    -0.358 OA
ATOM     70  H   UNL d   1      16.504  34.308  13.559  0.00  0.00     0.217 HD
ENDBRANCH  64  69
ENDBRANCH  22  61
BRANCH  16  71
ATOM     71  C   UNL d   1      19.586  29.640  21.638  0.00  0.00     0.010 A 
ATOM     72  C   UNL d   1      20.106  28.827  21.376  0.00  0.00     0.052 A 
ATOM     73  C   UNL d   1      19.870  27.937  21.764  0.00  0.00     0.099 A 
ATOM     74  C   UNL d   1      19.115  27.859  22.415  0.00  0.00     0.098 A 
ATOM     75  C   UNL d   1      18.595  28.672  22.677  0.00  0.00     0.040 A 
ATOM     76  C   UNL d   1      18.830  29.562  22.288  0.00  0.00     0.015 A 
BRANCH  73  77
ATOM     77  O   UNL d   1      20.390  27.123  21.503  0.00  0.00    -0.358 OA
ATOM     78  H   UNL d   1      21.009  27.126  21.544  0.00  0.00     0.217 HD
ENDBRANCH  73  77
BRANCH  74  79
ATOM     79  O   UNL d   1      18.878  26.967  22.804  0.00  0.00    -0.358 OA
ATOM     80  H   UNL d   1      18.301  26.750  22.749  0.00  0.00     0.217 HD
ENDBRANCH  74  79
ENDBRANCH  16  71
BRANCH  10  81
ATOM     81  O   UNL d   1      20.569  30.492  22.524  0.00  0.00    -0.389 OA
ATOM     82  H   UNL d   1      20.800  30.309  23.071  0.00  0.00     0.210 HD
ENDBRANCH  10  81
BRANCH  13  83
ATOM     83  O   UNL d   1      22.528  35.864  21.071  0.00  0.00    -0.389 OA
ATOM     84  H   UNL d   1      23.122  35.688  21.071  0.00  0.00     0.210 HD
ENDBRANCH  13  83
BRANCH  25  85
ATOM     85  O   UNL d   1      21.978  33.251  22.446  0.00  0.00    -0.360 OA
ATOM     86  H   UNL d   1      21.601  33.560  22.063  0.00  0.00     0.217 HD
ENDBRANCH  25  85
BRANCH  15  87
ATOM     87  C   UNL d   1      21.942  36.482  19.558  0.00  0.00     0.010 A 
ATOM     88  C   UNL d   1      22.917  36.481  19.334  0.00  0.00     0.052 A 
ATOM     89  C   UNL d   1      23.514  37.194  19.701  0.00  0.00     0.099 A 
ATOM     90  C   UNL d   1      23.137  37.907  20.292  0.00  0.00     0.098 A 
ATOM     91  C   UNL d   1      22.162  37.907  20.517  0.00  0.00     0.040 A 
ATOM     92  C   UNL d   1      21.565  37.194  20.149  0.00  0.00     0.015 A 
BRANCH  89  93
ATOM     93  O   UNL d   1      24.489  37.195  19.477  0.00  0.00    -0.358 OA
ATOM     94  H   UNL d   1      24.772  37.726  19.330  0.00  0.00     0.217 HD
ENDBRANCH  89  93
BRANCH  90  95
ATOM     95  O   UNL d   1      23.734  38.620  20.660  0.00  0.00    -0.358 OA
ATOM     96  H   UNL d   1      24.323  38.487  20.804  0.00  0.00     0.217 HD
ENDBRANCH  90  95
ENDBRANCH  15  87
BRANCH  26  97
ATOM     97  O   UNL d   1      19.205  34.196  17.015  0.00  0.00    -0.360 OA
ATOM     98  H   UNL d   1      18.671  34.019  16.753  0.00  0.00     0.217 HD
ENDBRANCH  26  97
BRANCH  31  99
ATOM     99  O   UNL d   1      22.179  30.886  24.852  0.00  0.00    -0.361 OA
ATOM    100  H   UNL d   1      21.851  30.500  25.210  0.00  0.00     0.217 HD
ENDBRANCH  31  99
BRANCH  32 101
ATOM    101  O   UNL d   1      19.462  37.052  14.941  0.00  0.00    -0.361 OA
ATOM    102  H   UNL d   1      19.372  36.741  14.413  0.00  0.00     0.217 HD
ENDBRANCH  32 101
TORSDOF 23
ENDMDL
