MODEL 1
REMARK VINA RESULT:    -8.657      0.000      0.000
REMARK INTER + INTRA:          14.852
REMARK INTER:                 -14.522
REMARK INTRA:                  29.374
REMARK UNBOUND:                29.330
REMARK  18 active torsions:
REMARK  status: ('A' for Active; 'I' for Inactive)
REMARK    1  A    between atoms: C_20  and  O_4 
REMARK    2  A    between atoms: C_26  and  O_5 
REMARK    3  A    between atoms: O_7  and  C_33 
REMARK    4  A    between atoms: O_8  and  C_36 
REMARK    5  A    between atoms: O_9  and  C_39 
REMARK    6  A    between atoms: C_43  and  O_10 
REMARK    7  A    between atoms: O_11  and  C_47 
REMARK    8  A    between atoms: O_12  and  C_48 
REMARK    9  A    between atoms: O_13  and  C_52 
REMARK   10  A    between atoms: O_14  and  C_55 
REMARK   11  A    between atoms: O_15  and  C_56 
REMARK   12  A    between atoms: O_16  and  C_58 
REMARK   13  A    between atoms: O_17  and  C_61 
REMARK   14  A    between atoms: O_18  and  C_63 
REMARK   15  A    between atoms: C_21  and  C_32 
REMARK   16  A    between atoms: C_23  and  C_30 
REMARK   17  A    between atoms: C_29  and  C_37 
REMARK   18  A    between atoms: C_42  and  C_54 
ROOT
ATOM      1  O   UNL d   1      21.196  34.053  20.257  0.00  0.00    -0.306 OA
ATOM      2  O   UNL d   1      21.145  36.693  18.012  0.00  0.00    -0.306 OA
ATOM      3  O   UNL d   1      19.109  33.449  17.581  0.00  0.00    -0.337 OA
ATOM      4  C   UNL d   1      20.708  35.030  18.713  0.00  0.00     0.097 A 
ATOM      5  C   UNL d   1      21.987  35.698  20.108  0.00  0.00     0.199 A 
ATOM      6  C   UNL d   1      21.324  35.730  19.074  0.00  0.00     0.231 A 
ATOM      7  C   UNL d   1      20.193  33.666  19.049  0.00  0.00     0.021 A 
ATOM      8  C   UNL d   1      18.557  31.508  18.336  0.00  0.00     0.094 A 
ATOM      9  C   UNL d   1      19.521  33.077  18.513  0.00  0.00     0.089 A 
ATOM     10  C   UNL d   1      19.255  32.139  18.878  0.00  0.00     0.020 A 
ATOM     11  C   UNL d   1      18.132  31.859  17.402  0.00  0.00     0.165 A 
ATOM     12  C   UNL d   1      20.148  35.560  17.428  0.00  0.00     0.020 A 
ATOM     13  C   UNL d   1      20.584  33.342  19.910  0.00  0.00     0.085 A 
ATOM     14  C   UNL d   1      18.409  32.837  17.021  0.00  0.00     0.192 A 
ATOM     15  C   UNL d   1      20.527  36.469  17.257  0.00  0.00     0.085 A 
ATOM     16  C   UNL d   1      19.663  31.801  19.775  0.00  0.00     0.078 A 
ATOM     17  C   UNL d   1      20.332  32.407  20.294  0.00  0.00     0.074 A 
ATOM     18  C   UNL d   1      19.475  35.128  16.760  0.00  0.00     0.078 A 
ATOM     19  C   UNL d   1      20.260  37.010  16.408  0.00  0.00     0.074 A 
ATOM     20  C   UNL d   1      19.194  35.650  15.904  0.00  0.00     0.073 A 
ATOM     21  C   UNL d   1      19.589  36.597  15.726  0.00  0.00     0.071 A 
ENDROOT
BRANCH   8  22
ATOM     22  C   UNL d   1      18.308  30.608  18.696  0.00  0.00     0.020 A 
ATOM     23  C   UNL d   1      17.524  30.516  19.309  0.00  0.00     0.088 A 
ATOM     24  O   UNL d   1      16.976  31.364  19.565  0.00  0.00    -0.337 OA
ATOM     25  C   UNL d   1      17.275  29.616  19.669  0.00  0.00     0.012 A 
ATOM     26  C   UNL d   1      16.158  31.274  20.203  0.00  0.00     0.191 A 
ATOM     27  C   UNL d   1      15.899  30.338  20.578  0.00  0.00     0.156 A 
ATOM     28  C   UNL d   1      16.461  29.503  20.309  0.00  0.00     0.079 A 
ATOM     29  C   UNL d   1      17.810  28.810  19.416  0.00  0.00     0.077 A 
ATOM     30  C   UNL d   1      18.595  28.904  18.802  0.00  0.00     0.074 A 
ATOM     31  C   UNL d   1      18.843  29.803  18.443  0.00  0.00     0.078 A 
BRANCH  26  32
ATOM     32  C   UNL d   1      15.626  32.082  20.454  0.00  0.00    -0.024 A 
ATOM     33  C   UNL d   1      15.856  32.596  21.281  0.00  0.00     0.049 A 
ATOM     34  C   UNL d   1      15.324  33.404  21.532  0.00  0.00     0.099 A 
ATOM     35  C   UNL d   1      14.560  33.699  20.958  0.00  0.00     0.098 A 
ATOM     36  C   UNL d   1      14.329  33.185  20.131  0.00  0.00     0.040 A 
ATOM     37  C   UNL d   1      14.862  32.377  19.879  0.00  0.00     0.013 A 
BRANCH  34  38
ATOM     38  O   UNL d   1      15.554  33.918  22.359  0.00  0.00    -0.358 OA
ATOM     39  H   UNL d   1      15.639  33.619  22.895  0.00  0.00     0.217 HD
ENDBRANCH  34  38
BRANCH  35  40
ATOM     40  O   UNL d   1      14.028  34.507  21.209  0.00  0.00    -0.358 OA
ATOM     41  H   UNL d   1      13.464  34.594  20.966  0.00  0.00     0.217 HD
ENDBRANCH  35  40
ENDBRANCH  26  32
BRANCH  27  42
ATOM     42  O   UNL d   1      15.115  30.241  21.191  0.00  0.00    -0.392 OA
ATOM     43  H   UNL d   1      15.090  30.570  21.717  0.00  0.00     0.210 HD
ENDBRANCH  27  42
BRANCH  29  44
ATOM     44  O   UNL d   1      17.561  27.911  19.776  0.00  0.00    -0.360 OA
ATOM     45  H   UNL d   1      17.329  27.479  19.396  0.00  0.00     0.217 HD
ENDBRANCH  29  44
BRANCH  31  46
ATOM     46  O   UNL d   1      19.551  29.242  18.012  0.00  0.00    -0.360 OA
ATOM     47  H   UNL d   1      20.059  29.086  18.331  0.00  0.00     0.217 HD
ENDBRANCH  31  46
ENDBRANCH   8  22
BRANCH  11  48
ATOM     48  O   UNL d   1      17.488  31.285  16.895  0.00  0.00    -0.392 OA
ATOM     49  H   UNL d   1      16.935  31.152  17.138  0.00  0.00     0.210 HD
ENDBRANCH  11  48
BRANCH  16  50
ATOM     50  O   UNL d   1      19.857  31.209  20.556  0.00  0.00    -0.360 OA
ATOM     51  H   UNL d   1      19.435  30.794  20.744  0.00  0.00     0.217 HD
ENDBRANCH  16  50
BRANCH  14  52
ATOM     52  C   UNL d   1      18.024  33.170  16.162  0.00  0.00    -0.024 A 
ATOM     53  C   UNL d   1      18.493  32.985  15.297  0.00  0.00     0.049 A 
ATOM     54  C   UNL d   1      18.107  33.318  14.438  0.00  0.00     0.099 A 
ATOM     55  C   UNL d   1      17.252  33.838  14.441  0.00  0.00     0.098 A 
ATOM     56  C   UNL d   1      16.784  34.023  15.305  0.00  0.00     0.040 A 
ATOM     57  C   UNL d   1      17.169  33.690  16.165  0.00  0.00     0.013 A 
BRANCH  54  58
ATOM     58  O   UNL d   1      18.576  33.133  13.575  0.00  0.00    -0.358 OA
ATOM     59  H   UNL d   1      19.043  33.498  13.390  0.00  0.00     0.217 HD
ENDBRANCH  54  58
BRANCH  55  60
ATOM     60  O   UNL d   1      16.867  34.171  13.581  0.00  0.00    -0.358 OA
ATOM     61  H   UNL d   1      16.573  34.716  13.564  0.00  0.00     0.217 HD
ENDBRANCH  55  60
ENDBRANCH  14  52
BRANCH   5  62
ATOM     62  O   UNL d   1      22.566  35.780  20.920  0.00  0.00    -0.389 OA
ATOM     63  H   UNL d   1      23.083  36.122  20.898  0.00  0.00     0.210 HD
ENDBRANCH   5  62
BRANCH   6  64
ATOM     64  C   UNL d   1      21.940  36.431  19.435  0.00  0.00     0.010 A 
ATOM     65  C   UNL d   1      21.568  37.280  19.810  0.00  0.00     0.052 A 
ATOM     66  C   UNL d   1      22.184  37.980  20.170  0.00  0.00     0.099 A 
ATOM     67  C   UNL d   1      23.173  37.831  20.157  0.00  0.00     0.098 A 
ATOM     68  C   UNL d   1      23.545  36.981  19.783  0.00  0.00     0.040 A 
ATOM     69  C   UNL d   1      22.929  36.281  19.422  0.00  0.00     0.015 A 
BRANCH  66  70
ATOM     70  O   UNL d   1      21.812  38.829  20.544  0.00  0.00    -0.358 OA
ATOM     71  H   UNL d   1      22.170  39.333  20.587  0.00  0.00     0.217 HD
ENDBRANCH  66  70
BRANCH  67  72
ATOM     72  O   UNL d   1      23.789  38.531  20.518  0.00  0.00    -0.358 OA
ATOM     73  H   UNL d   1      23.731  38.722  21.104  0.00  0.00     0.217 HD
ENDBRANCH  67  72
ENDBRANCH   6  64
BRANCH  18  74
ATOM     74  O   UNL d   1      19.102  34.217  16.940  0.00  0.00    -0.360 OA
ATOM     75  H   UNL d   1      18.971  33.837  16.469  0.00  0.00     0.217 HD
ENDBRANCH  18  74
BRANCH  21  76
ATOM     76  O   UNL d   1      19.325  37.107  14.907  0.00  0.00    -0.361 OA
ATOM     77  H   UNL d   1      19.503  37.697  14.839  0.00  0.00     0.217 HD
ENDBRANCH  21  76
TORSDOF 18
ENDMDL
MODEL 2
REMARK VINA RESULT:    -8.580      5.218      8.197
REMARK INTER + INTRA:          14.981
REMARK INTER:                 -14.219
REMARK INTRA:                  29.200
REMARK UNBOUND:                29.330
REMARK  18 active torsions:
REMARK  status: ('A' for Active; 'I' for Inactive)
REMARK    1  A    between atoms: C_20  and  O_4 
REMARK    2  A    between atoms: C_26  and  O_5 
REMARK    3  A    between atoms: O_7  and  C_33 
REMARK    4  A    between atoms: O_8  and  C_36 
REMARK    5  A    between atoms: O_9  and  C_39 
REMARK    6  A    between atoms: C_43  and  O_10 
REMARK    7  A    between atoms: O_11  and  C_47 
REMARK    8  A    between atoms: O_12  and  C_48 
REMARK    9  A    between atoms: O_13  and  C_52 
REMARK   10  A    between atoms: O_14  and  C_55 
REMARK   11  A    between atoms: O_15  and  C_56 
REMARK   12  A    between atoms: O_16  and  C_58 
REMARK   13  A    between atoms: O_17  and  C_61 
REMARK   14  A    between atoms: O_18  and  C_63 
REMARK   15  A    between atoms: C_21  and  C_32 
REMARK   16  A    between atoms: C_23  and  C_30 
REMARK   17  A    between atoms: C_29  and  C_37 
REMARK   18  A    between atoms: C_42  and  C_54 
ROOT
ATOM      1  O   UNL d   1      15.115  32.500  14.685  0.00  0.00    -0.306 OA
ATOM      2  O   UNL d   1      16.985  35.195  15.804  0.00  0.00    -0.306 OA
ATOM      3  O   UNL d   1      13.700  35.521  13.816  0.00  0.00    -0.337 OA
ATOM      4  C   UNL d   1      15.587  34.310  14.962  0.00  0.00     0.097 A 
ATOM      5  C   UNL d   1      16.668  32.754  15.623  0.00  0.00     0.199 A 
ATOM      6  C   UNL d   1      16.379  33.935  15.443  0.00  0.00     0.231 A 
ATOM      7  C   UNL d   1      14.365  33.858  14.226  0.00  0.00     0.021 A 
ATOM      8  C   UNL d   1      12.048  34.560  12.821  0.00  0.00     0.094 A 
ATOM      9  C   UNL d   1      13.627  34.439  13.777  0.00  0.00     0.089 A 
ATOM     10  C   UNL d   1      12.829  33.975  13.296  0.00  0.00     0.020 A 
ATOM     11  C   UNL d   1      12.099  35.644  12.847  0.00  0.00     0.165 A 
ATOM     12  C   UNL d   1      15.704  35.804  15.026  0.00  0.00     0.020 A 
ATOM     13  C   UNL d   1      14.317  32.859  14.201  0.00  0.00     0.085 A 
ATOM     14  C   UNL d   1      12.931  36.128  13.348  0.00  0.00     0.192 A 
ATOM     15  C   UNL d   1      16.535  36.045  15.527  0.00  0.00     0.085 A 
ATOM     16  C   UNL d   1      12.778  32.935  13.270  0.00  0.00     0.078 A 
ATOM     17  C   UNL d   1      13.528  32.373  13.726  0.00  0.00     0.074 A 
ATOM     18  C   UNL d   1      15.076  36.543  14.644  0.00  0.00     0.078 A 
ATOM     19  C   UNL d   1      16.797  37.041  15.681  0.00  0.00     0.074 A 
ATOM     20  C   UNL d   1      15.319  37.545  14.786  0.00  0.00     0.073 A 
ATOM     21  C   UNL d   1      16.184  37.797  15.308  0.00  0.00     0.071 A 
ENDROOT
BRANCH   8  22
ATOM     22  C   UNL d   1      11.285  34.104  12.362  0.00  0.00     0.020 A 
ATOM     23  C   UNL d   1      10.449  33.896  12.869  0.00  0.00     0.088 A 
ATOM     24  O   UNL d   1      10.386  34.161  13.875  0.00  0.00    -0.337 OA
ATOM     25  C   UNL d   1       9.686  33.440  12.410  0.00  0.00     0.012 A 
ATOM     26  C   UNL d   1       9.518  33.948  14.409  0.00  0.00     0.191 A 
ATOM     27  C   UNL d   1       8.724  33.472  13.931  0.00  0.00     0.156 A 
ATOM     28  C   UNL d   1       8.808  33.216  12.925  0.00  0.00     0.079 A 
ATOM     29  C   UNL d   1       9.760  33.191  11.445  0.00  0.00     0.077 A 
ATOM     30  C   UNL d   1      10.597  33.399  10.937  0.00  0.00     0.074 A 
ATOM     31  C   UNL d   1      11.359  33.855  11.396  0.00  0.00     0.078 A 
BRANCH  26  32
ATOM     32  C   UNL d   1       9.448  34.198  15.375  0.00  0.00    -0.024 A 
ATOM     33  C   UNL d   1       9.075  35.089  15.634  0.00  0.00     0.049 A 
ATOM     34  C   UNL d   1       9.004  35.339  16.600  0.00  0.00     0.099 A 
ATOM     35  C   UNL d   1       9.306  34.699  17.306  0.00  0.00     0.098 A 
ATOM     36  C   UNL d   1       9.679  33.807  17.046  0.00  0.00     0.040 A 
ATOM     37  C   UNL d   1       9.750  33.557  16.081  0.00  0.00     0.013 A 
BRANCH  34  38
ATOM     38  O   UNL d   1       8.632  36.230  16.860  0.00  0.00    -0.358 OA
ATOM     39  H   UNL d   1       8.022  36.295  16.953  0.00  0.00     0.217 HD
ENDBRANCH  34  38
BRANCH  35  40
ATOM     40  O   UNL d   1       9.236  34.949  18.272  0.00  0.00    -0.358 OA
ATOM     41  H   UNL d   1       9.158  35.542  18.433  0.00  0.00     0.217 HD
ENDBRANCH  35  40
ENDBRANCH  26  32
BRANCH  27  42
ATOM     42  O   UNL d   1       7.886  33.263  14.435  0.00  0.00    -0.392 OA
ATOM     43  H   UNL d   1       7.643  32.692  14.410  0.00  0.00     0.210 HD
ENDBRANCH  27  42
BRANCH  29  44
ATOM     44  O   UNL d   1       8.998  32.735  10.986  0.00  0.00    -0.360 OA
ATOM     45  H   UNL d   1       8.627  33.056  10.607  0.00  0.00     0.217 HD
ENDBRANCH  29  44
BRANCH  31  46
ATOM     46  O   UNL d   1      11.745  33.753  10.479  0.00  0.00    -0.360 OA
ATOM     47  H   UNL d   1      12.195  33.339  10.378  0.00  0.00     0.217 HD
ENDBRANCH  31  46
ENDBRANCH   8  22
BRANCH  11  48
ATOM     48  O   UNL d   1      11.385  36.193  12.413  0.00  0.00    -0.392 OA
ATOM     49  H   UNL d   1      11.435  36.349  11.816  0.00  0.00     0.210 HD
ENDBRANCH  11  48
BRANCH  16  50
ATOM     50  O   UNL d   1      12.444  32.014  13.072  0.00  0.00    -0.360 OA
ATOM     51  H   UNL d   1      12.477  31.572  13.507  0.00  0.00     0.217 HD
ENDBRANCH  16  50
BRANCH  14  52
ATOM     52  C   UNL d   1      12.989  37.125  13.379  0.00  0.00    -0.024 A 
ATOM     53  C   UNL d   1      12.555  37.629  14.127  0.00  0.00     0.049 A 
ATOM     54  C   UNL d   1      12.613  38.626  14.157  0.00  0.00     0.099 A 
ATOM     55  C   UNL d   1      13.105  39.121  13.440  0.00  0.00     0.098 A 
ATOM     56  C   UNL d   1      13.539  38.618  12.693  0.00  0.00     0.040 A 
ATOM     57  C   UNL d   1      13.481  37.620  12.662  0.00  0.00     0.013 A 
BRANCH  54  58
ATOM     58  O   UNL d   1      12.179  39.129  14.904  0.00  0.00    -0.358 OA
ATOM     59  H   UNL d   1      11.561  39.176  14.929  0.00  0.00     0.217 HD
ENDBRANCH  54  58
BRANCH  55  60
ATOM     60  O   UNL d   1      13.162  40.119  13.472  0.00  0.00    -0.358 OA
ATOM     61  H   UNL d   1      12.934  40.457  13.005  0.00  0.00     0.217 HD
ENDBRANCH  55  60
ENDBRANCH  14  52
BRANCH   5  62
ATOM     62  O   UNL d   1      16.999  31.833  15.827  0.00  0.00    -0.389 OA
ATOM     63  H   UNL d   1      16.851  31.360  15.455  0.00  0.00     0.210 HD
ENDBRANCH   5  62
BRANCH   6  64
ATOM     64  C   UNL d   1      17.172  33.559  15.924  0.00  0.00     0.010 A 
ATOM     65  C   UNL d   1      18.013  33.359  15.421  0.00  0.00     0.052 A 
ATOM     66  C   UNL d   1      18.805  32.983  15.903  0.00  0.00     0.099 A 
ATOM     67  C   UNL d   1      18.756  32.808  16.886  0.00  0.00     0.098 A 
ATOM     68  C   UNL d   1      17.914  33.008  17.388  0.00  0.00     0.040 A 
ATOM     69  C   UNL d   1      17.122  33.384  16.907  0.00  0.00     0.015 A 
BRANCH  66  70
ATOM     70  O   UNL d   1      19.646  32.783  15.400  0.00  0.00    -0.358 OA
ATOM     71  H   UNL d   1      20.163  32.631  15.708  0.00  0.00     0.217 HD
ENDBRANCH  66  70
BRANCH  67  72
ATOM     72  O   UNL d   1      19.548  32.432  17.367  0.00  0.00    -0.358 OA
ATOM     73  H   UNL d   1      20.062  32.772  17.430  0.00  0.00     0.217 HD
ENDBRANCH  67  72
ENDBRANCH   6  64
BRANCH  18  74
ATOM     74  O   UNL d   1      14.248  36.291  14.144  0.00  0.00    -0.360 OA
ATOM     75  H   UNL d   1      13.918  35.797  14.321  0.00  0.00     0.217 HD
ENDBRANCH  18  74
BRANCH  21  76
ATOM     76  O   UNL d   1      16.426  38.757  15.450  0.00  0.00    -0.361 OA
ATOM     77  H   UNL d   1      17.011  38.944  15.367  0.00  0.00     0.217 HD
ENDBRANCH  21  76
TORSDOF 18
ENDMDL
MODEL 3
REMARK VINA RESULT:    -8.384      3.158      6.307
REMARK INTER + INTRA:          15.310
REMARK INTER:                 -14.450
REMARK INTRA:                  29.760
REMARK UNBOUND:                29.330
REMARK  18 active torsions:
REMARK  status: ('A' for Active; 'I' for Inactive)
REMARK    1  A    between atoms: C_20  and  O_4 
REMARK    2  A    between atoms: C_26  and  O_5 
REMARK    3  A    between atoms: O_7  and  C_33 
REMARK    4  A    between atoms: O_8  and  C_36 
REMARK    5  A    between atoms: O_9  and  C_39 
REMARK    6  A    between atoms: C_43  and  O_10 
REMARK    7  A    between atoms: O_11  and  C_47 
REMARK    8  A    between atoms: O_12  and  C_48 
REMARK    9  A    between atoms: O_13  and  C_52 
REMARK   10  A    between atoms: O_14  and  C_55 
REMARK   11  A    between atoms: O_15  and  C_56 
REMARK   12  A    between atoms: O_16  and  C_58 
REMARK   13  A    between atoms: O_17  and  C_61 
REMARK   14  A    between atoms: O_18  and  C_63 
REMARK   15  A    between atoms: C_21  and  C_32 
REMARK   16  A    between atoms: C_23  and  C_30 
REMARK   17  A    between atoms: C_29  and  C_37 
REMARK   18  A    between atoms: C_42  and  C_54 
ROOT
ATOM      1  O   UNL d   1      16.806  37.511  15.322  0.00  0.00    -0.306 OA
ATOM      2  O   UNL d   1      13.793  36.322  14.090  0.00  0.00    -0.306 OA
ATOM      3  O   UNL d   1      16.366  34.153  15.967  0.00  0.00    -0.337 OA
ATOM      4  C   UNL d   1      15.438  36.260  14.947  0.00  0.00     0.097 A 
ATOM      5  C   UNL d   1      15.371  38.192  14.412  0.00  0.00     0.199 A 
ATOM      6  C   UNL d   1      14.978  37.033  14.511  0.00  0.00     0.231 A 
ATOM      7  C   UNL d   1      16.704  35.936  15.678  0.00  0.00     0.021 A 
ATOM      8  C   UNL d   1      18.265  34.008  16.975  0.00  0.00     0.094 A 
ATOM      9  C   UNL d   1      17.009  35.021  16.071  0.00  0.00     0.089 A 
ATOM     10  C   UNL d   1      17.926  34.951  16.558  0.00  0.00     0.020 A 
ATOM     11  C   UNL d   1      17.639  33.126  16.884  0.00  0.00     0.165 A 
ATOM     12  C   UNL d   1      14.538  35.071  14.795  0.00  0.00     0.020 A 
ATOM     13  C   UNL d   1      17.281  36.748  15.762  0.00  0.00     0.085 A 
ATOM     14  C   UNL d   1      16.683  33.199  16.377  0.00  0.00     0.192 A 
ATOM     15  C   UNL d   1      13.713  35.347  14.302  0.00  0.00     0.085 A 
ATOM     16  C   UNL d   1      18.528  35.797  16.646  0.00  0.00     0.078 A 
ATOM     17  C   UNL d   1      18.202  36.702  16.245  0.00  0.00     0.074 A 
ATOM     18  C   UNL d   1      14.665  34.087  15.115  0.00  0.00     0.078 A 
ATOM     19  C   UNL d   1      12.958  34.661  14.094  0.00  0.00     0.074 A 
ATOM     20  C   UNL d   1      13.923  33.384  14.918  0.00  0.00     0.073 A 
ATOM     21  C   UNL d   1      13.064  33.671  14.405  0.00  0.00     0.071 A 
ENDROOT
BRANCH   8  22
ATOM     22  C   UNL d   1      19.148  33.952  17.441  0.00  0.00     0.020 A 
ATOM     23  C   UNL d   1      19.196  34.049  18.435  0.00  0.00     0.088 A 
ATOM     24  O   UNL d   1      18.317  34.208  18.972  0.00  0.00    -0.337 OA
ATOM     25  C   UNL d   1      20.079  33.993  18.901  0.00  0.00     0.012 A 
ATOM     26  C   UNL d   1      18.359  34.310  20.008  0.00  0.00     0.191 A 
ATOM     27  C   UNL d   1      19.279  34.252  20.493  0.00  0.00     0.156 A 
ATOM     28  C   UNL d   1      20.145  34.092  19.937  0.00  0.00     0.079 A 
ATOM     29  C   UNL d   1      20.915  33.841  18.374  0.00  0.00     0.077 A 
ATOM     30  C   UNL d   1      20.866  33.743  17.379  0.00  0.00     0.074 A 
ATOM     31  C   UNL d   1      19.984  33.799  16.914  0.00  0.00     0.078 A 
BRANCH  26  32
ATOM     32  C   UNL d   1      17.522  34.463  20.533  0.00  0.00    -0.024 A 
ATOM     33  C   UNL d   1      17.443  35.264  21.126  0.00  0.00     0.049 A 
ATOM     34  C   UNL d   1      16.606  35.417  21.651  0.00  0.00     0.099 A 
ATOM     35  C   UNL d   1      15.847  34.769  21.583  0.00  0.00     0.098 A 
ATOM     36  C   UNL d   1      15.926  33.967  20.989  0.00  0.00     0.040 A 
ATOM     37  C   UNL d   1      16.764  33.814  20.464  0.00  0.00     0.013 A 
BRANCH  34  38
ATOM     38  O   UNL d   1      16.526  36.218  22.245  0.00  0.00    -0.358 OA
ATOM     39  H   UNL d   1      16.152  36.686  22.084  0.00  0.00     0.217 HD
ENDBRANCH  34  38
BRANCH  35  40
ATOM     40  O   UNL d   1      15.010  34.921  22.108  0.00  0.00    -0.358 OA
ATOM     41  H   UNL d   1      14.941  35.442  22.435  0.00  0.00     0.217 HD
ENDBRANCH  35  40
ENDBRANCH  26  32
BRANCH  27  42
ATOM     42  O   UNL d   1      19.330  34.348  21.487  0.00  0.00    -0.392 OA
ATOM     43  H   UNL d   1      18.809  34.376  21.823  0.00  0.00     0.210 HD
ENDBRANCH  27  42
BRANCH  29  44
ATOM     44  O   UNL d   1      21.797  33.785  18.840  0.00  0.00    -0.360 OA
ATOM     45  H   UNL d   1      21.989  34.254  19.197  0.00  0.00     0.217 HD
ENDBRANCH  29  44
BRANCH  31  46
ATOM     46  O   UNL d   1      20.584  33.648  16.128  0.00  0.00    -0.360 OA
ATOM     47  H   UNL d   1      20.989  33.178  16.135  0.00  0.00     0.217 HD
ENDBRANCH  31  46
ENDBRANCH   8  22
BRANCH  11  48
ATOM     48  O   UNL d   1      17.942  32.252  17.265  0.00  0.00    -0.392 OA
ATOM     49  H   UNL d   1      17.867  31.731  16.940  0.00  0.00     0.210 HD
ENDBRANCH  11  48
BRANCH  16  50
ATOM     50  O   UNL d   1      19.302  36.379  16.891  0.00  0.00    -0.360 OA
ATOM     51  H   UNL d   1      19.877  36.147  16.893  0.00  0.00     0.217 HD
ENDBRANCH  16  50
BRANCH  14  52
ATOM     52  C   UNL d   1      16.098  32.393  16.287  0.00  0.00    -0.024 A 
ATOM     53  C   UNL d   1      15.449  32.163  17.012  0.00  0.00     0.049 A 
ATOM     54  C   UNL d   1      14.864  31.357  16.922  0.00  0.00     0.099 A 
ATOM     55  C   UNL d   1      14.928  30.781  16.107  0.00  0.00     0.098 A 
ATOM     56  C   UNL d   1      15.577  31.012  15.382  0.00  0.00     0.040 A 
ATOM     57  C   UNL d   1      16.162  31.817  15.471  0.00  0.00     0.013 A 
BRANCH  54  58
ATOM     58  O   UNL d   1      14.216  31.127  17.647  0.00  0.00    -0.358 OA
ATOM     59  H   UNL d   1      13.714  30.787  17.518  0.00  0.00     0.217 HD
ENDBRANCH  54  58
BRANCH  55  60
ATOM     60  O   UNL d   1      14.343  29.975  16.017  0.00  0.00    -0.358 OA
ATOM     61  H   UNL d   1      14.115  29.818  15.463  0.00  0.00     0.217 HD
ENDBRANCH  55  60
ENDBRANCH  14  52
BRANCH   5  62
ATOM     62  O   UNL d   1      15.589  39.158  14.273  0.00  0.00    -0.389 OA
ATOM     63  H   UNL d   1      15.136  39.564  14.149  0.00  0.00     0.210 HD
ENDBRANCH   5  62
BRANCH   6  64
ATOM     64  C   UNL d   1      14.517  37.806  14.076  0.00  0.00     0.010 A 
ATOM     65  C   UNL d   1      13.868  38.361  14.597  0.00  0.00     0.052 A 
ATOM     66  C   UNL d   1      13.408  39.133  14.160  0.00  0.00     0.099 A 
ATOM     67  C   UNL d   1      13.595  39.352  13.203  0.00  0.00     0.098 A 
ATOM     68  C   UNL d   1      14.244  38.797  12.681  0.00  0.00     0.040 A 
ATOM     69  C   UNL d   1      14.705  38.024  13.117  0.00  0.00     0.015 A 
BRANCH  66  70
ATOM     70  O   UNL d   1      12.759  39.688  14.682  0.00  0.00    -0.358 OA
ATOM     71  H   UNL d   1      12.660  39.567  15.282  0.00  0.00     0.217 HD
ENDBRANCH  66  70
BRANCH  67  72
ATOM     72  O   UNL d   1      13.134  40.125  12.767  0.00  0.00    -0.358 OA
ATOM     73  H   UNL d   1      13.402  40.684  12.765  0.00  0.00     0.217 HD
ENDBRANCH  67  72
ENDBRANCH   6  64
BRANCH  18  74
ATOM     74  O   UNL d   1      15.494  33.821  15.608  0.00  0.00    -0.360 OA
ATOM     75  H   UNL d   1      15.672  33.228  15.616  0.00  0.00     0.217 HD
ENDBRANCH  18  74
BRANCH  21  76
ATOM     76  O   UNL d   1      12.345  33.003  14.210  0.00  0.00    -0.361 OA
ATOM     77  H   UNL d   1      12.049  32.723  14.677  0.00  0.00     0.217 HD
ENDBRANCH  21  76
TORSDOF 18
ENDMDL
MODEL 4
REMARK VINA RESULT:    -8.303      1.700      7.554
REMARK INTER + INTRA:          15.445
REMARK INTER:                 -13.864
REMARK INTRA:                  29.309
REMARK UNBOUND:                29.330
REMARK  18 active torsions:
REMARK  status: ('A' for Active; 'I' for Inactive)
REMARK    1  A    between atoms: C_20  and  O_4 
REMARK    2  A    between atoms: C_26  and  O_5 
REMARK    3  A    between atoms: O_7  and  C_33 
REMARK    4  A    between atoms: O_8  and  C_36 
REMARK    5  A    between atoms: O_9  and  C_39 
REMARK    6  A    between atoms: C_43  and  O_10 
REMARK    7  A    between atoms: O_11  and  C_47 
REMARK    8  A    between atoms: O_12  and  C_48 
REMARK    9  A    between atoms: O_13  and  C_52 
REMARK   10  A    between atoms: O_14  and  C_55 
REMARK   11  A    between atoms: O_15  and  C_56 
REMARK   12  A    between atoms: O_16  and  C_58 
REMARK   13  A    between atoms: O_17  and  C_61 
REMARK   14  A    between atoms: O_18  and  C_63 
REMARK   15  A    between atoms: C_21  and  C_32 
REMARK   16  A    between atoms: C_23  and  C_30 
REMARK   17  A    between atoms: C_29  and  C_37 
REMARK   18  A    between atoms: C_42  and  C_54 
ROOT
ATOM      1  O   UNL d   1      19.370  30.310  17.098  0.00  0.00    -0.306 OA
ATOM      2  O   UNL d   1      16.726  28.824  18.775  0.00  0.00    -0.306 OA
ATOM      3  O   UNL d   1      17.686  32.540  19.116  0.00  0.00    -0.337 OA
ATOM      4  C   UNL d   1      17.880  30.182  18.255  0.00  0.00     0.097 A 
ATOM      5  C   UNL d   1      18.619  28.643  17.202  0.00  0.00     0.199 A 
ATOM      6  C   UNL d   1      17.865  29.221  17.980  0.00  0.00     0.231 A 
ATOM      7  C   UNL d   1      18.655  31.439  18.009  0.00  0.00     0.021 A 
ATOM      8  C   UNL d   1      18.988  34.164  18.557  0.00  0.00     0.094 A 
ATOM      9  C   UNL d   1      18.500  32.385  18.416  0.00  0.00     0.089 A 
ATOM     10  C   UNL d   1      19.129  33.170  18.146  0.00  0.00     0.020 A 
ATOM     11  C   UNL d   1      18.180  34.344  19.259  0.00  0.00     0.165 A 
ATOM     12  C   UNL d   1      16.750  30.379  19.221  0.00  0.00     0.020 A 
ATOM     13  C   UNL d   1      19.399  31.274  17.363  0.00  0.00     0.085 A 
ATOM     14  C   UNL d   1      17.524  33.526  19.541  0.00  0.00     0.192 A 
ATOM     15  C   UNL d   1      16.272  29.510  19.345  0.00  0.00     0.085 A 
ATOM     16  C   UNL d   1      19.905  32.998  17.472  0.00  0.00     0.078 A 
ATOM     17  C   UNL d   1      20.041  32.043  17.078  0.00  0.00     0.074 A 
ATOM     18  C   UNL d   1      16.440  31.237  19.726  0.00  0.00     0.078 A 
ATOM     19  C   UNL d   1      15.451  29.437  19.982  0.00  0.00     0.074 A 
ATOM     20  C   UNL d   1      15.622  31.187  20.368  0.00  0.00     0.073 A 
ATOM     21  C   UNL d   1      15.124  30.281  20.497  0.00  0.00     0.071 A 
ENDROOT
BRANCH   8  22
ATOM     22  C   UNL d   1      19.598  34.911  18.291  0.00  0.00     0.020 A 
ATOM     23  C   UNL d   1      19.378  35.476  17.496  0.00  0.00     0.088 A 
ATOM     24  O   UNL d   1      18.510  35.276  16.955  0.00  0.00    -0.337 OA
ATOM     25  C   UNL d   1      19.988  36.222  17.229  0.00  0.00     0.012 A 
ATOM     26  C   UNL d   1      18.275  35.861  16.127  0.00  0.00     0.191 A 
ATOM     27  C   UNL d   1      18.910  36.639  15.849  0.00  0.00     0.156 A 
ATOM     28  C   UNL d   1      19.773  36.821  16.404  0.00  0.00     0.079 A 
ATOM     29  C   UNL d   1      20.818  36.403  17.757  0.00  0.00     0.077 A 
ATOM     30  C   UNL d   1      21.038  35.837  18.552  0.00  0.00     0.074 A 
ATOM     31  C   UNL d   1      20.428  35.091  18.818  0.00  0.00     0.078 A 
BRANCH  26  32
ATOM     32  C   UNL d   1      17.444  35.678  15.601  0.00  0.00    -0.024 A 
ATOM     33  C   UNL d   1      16.675  36.316  15.643  0.00  0.00     0.049 A 
ATOM     34  C   UNL d   1      15.844  36.133  15.117  0.00  0.00     0.099 A 
ATOM     35  C   UNL d   1      15.782  35.312  14.550  0.00  0.00     0.098 A 
ATOM     36  C   UNL d   1      16.552  34.673  14.508  0.00  0.00     0.040 A 
ATOM     37  C   UNL d   1      17.382  34.857  15.034  0.00  0.00     0.013 A 
BRANCH  34  38
ATOM     38  O   UNL d   1      15.075  36.771  15.158  0.00  0.00    -0.358 OA
ATOM     39  H   UNL d   1      14.507  36.561  15.294  0.00  0.00     0.217 HD
ENDBRANCH  34  38
BRANCH  35  40
ATOM     40  O   UNL d   1      14.952  35.128  14.024  0.00  0.00    -0.358 OA
ATOM     41  H   UNL d   1      14.933  34.649  13.632  0.00  0.00     0.217 HD
ENDBRANCH  35  40
ENDBRANCH  26  32
BRANCH  27  42
ATOM     42  O   UNL d   1      18.693  37.206  15.055  0.00  0.00    -0.392 OA
ATOM     43  H   UNL d   1      18.954  37.083  14.505  0.00  0.00     0.210 HD
ENDBRANCH  27  42
BRANCH  29  44
ATOM     44  O   UNL d   1      21.428  37.149  17.490  0.00  0.00    -0.360 OA
ATOM     45  H   UNL d   1      21.289  37.734  17.646  0.00  0.00     0.217 HD
ENDBRANCH  29  44
BRANCH  31  46
ATOM     46  O   UNL d   1      21.130  35.001  19.525  0.00  0.00    -0.360 OA
ATOM     47  H   UNL d   1      21.676  34.742  19.386  0.00  0.00     0.217 HD
ENDBRANCH  31  46
ENDBRANCH   8  22
BRANCH  11  48
ATOM     48  O   UNL d   1      18.041  35.256  19.644  0.00  0.00    -0.392 OA
ATOM     49  H   UNL d   1      17.487  35.530  19.599  0.00  0.00     0.210 HD
ENDBRANCH  11  48
BRANCH  16  50
ATOM     50  O   UNL d   1      20.697  33.167  16.887  0.00  0.00    -0.360 OA
ATOM     51  H   UNL d   1      21.271  33.116  17.118  0.00  0.00     0.217 HD
ENDBRANCH  16  50
BRANCH  14  52
ATOM     52  C   UNL d   1      16.777  33.680  20.186  0.00  0.00    -0.024 A 
ATOM     53  C   UNL d   1      15.887  33.996  19.856  0.00  0.00     0.049 A 
ATOM     54  C   UNL d   1      15.140  34.150  20.501  0.00  0.00     0.099 A 
ATOM     55  C   UNL d   1      15.281  33.987  21.478  0.00  0.00     0.098 A 
ATOM     56  C   UNL d   1      16.170  33.671  21.809  0.00  0.00     0.040 A 
ATOM     57  C   UNL d   1      16.918  33.517  21.163  0.00  0.00     0.013 A 
BRANCH  54  58
ATOM     58  O   UNL d   1      14.251  34.466  20.171  0.00  0.00    -0.358 OA
ATOM     59  H   UNL d   1      13.745  34.389  20.520  0.00  0.00     0.217 HD
ENDBRANCH  54  58
BRANCH  55  60
ATOM     60  O   UNL d   1      14.533  34.141  22.124  0.00  0.00    -0.358 OA
ATOM     61  H   UNL d   1      14.647  34.153  22.733  0.00  0.00     0.217 HD
ENDBRANCH  55  60
ENDBRANCH  14  52
BRANCH   5  62
ATOM     62  O   UNL d   1      19.169  28.074  16.590  0.00  0.00    -0.389 OA
ATOM     63  H   UNL d   1      19.219  28.222  15.990  0.00  0.00     0.210 HD
ENDBRANCH   5  62
BRANCH   6  64
ATOM     64  C   UNL d   1      17.850  28.260  17.705  0.00  0.00     0.010 A 
ATOM     65  C   UNL d   1      17.254  27.962  16.959  0.00  0.00     0.052 A 
ATOM     66  C   UNL d   1      17.239  27.001  16.684  0.00  0.00     0.099 A 
ATOM     67  C   UNL d   1      17.820  26.337  17.155  0.00  0.00     0.098 A 
ATOM     68  C   UNL d   1      18.416  26.634  17.901  0.00  0.00     0.040 A 
ATOM     69  C   UNL d   1      18.431  27.596  18.177  0.00  0.00     0.015 A 
BRANCH  66  70
ATOM     70  O   UNL d   1      16.644  26.704  15.938  0.00  0.00    -0.358 OA
ATOM     71  H   UNL d   1      16.338  27.123  15.598  0.00  0.00     0.217 HD
ENDBRANCH  66  70
BRANCH  67  72
ATOM     72  O   UNL d   1      17.805  25.376  16.880  0.00  0.00    -0.358 OA
ATOM     73  H   UNL d   1      17.313  25.023  17.012  0.00  0.00     0.217 HD
ENDBRANCH  67  72
ENDBRANCH   6  64
BRANCH  18  74
ATOM     74  O   UNL d   1      16.926  32.101  19.595  0.00  0.00    -0.360 OA
ATOM     75  H   UNL d   1      17.251  32.347  20.061  0.00  0.00     0.217 HD
ENDBRANCH  18  74
BRANCH  21  76
ATOM     76  O   UNL d   1      14.336  30.222  21.111  0.00  0.00    -0.361 OA
ATOM     77  H   UNL d   1      13.926  30.687  21.134  0.00  0.00     0.217 HD
ENDBRANCH  21  76
TORSDOF 18
ENDMDL
MODEL 5
REMARK VINA RESULT:    -8.177      1.137      1.513
REMARK INTER + INTRA:          15.656
REMARK INTER:                 -13.880
REMARK INTRA:                  29.535
REMARK UNBOUND:                29.330
REMARK  18 active torsions:
REMARK  status: ('A' for Active; 'I' for Inactive)
REMARK    1  A    between atoms: C_20  and  O_4 
REMARK    2  A    between atoms: C_26  and  O_5 
REMARK    3  A    between atoms: O_7  and  C_33 
REMARK    4  A    between atoms: O_8  and  C_36 
REMARK    5  A    between atoms: O_9  and  C_39 
REMARK    6  A    between atoms: C_43  and  O_10 
REMARK    7  A    between atoms: O_11  and  C_47 
REMARK    8  A    between atoms: O_12  and  C_48 
REMARK    9  A    between atoms: O_13  and  C_52 
REMARK   10  A    between atoms: O_14  and  C_55 
REMARK   11  A    between atoms: O_15  and  C_56 
REMARK   12  A    between atoms: O_16  and  C_58 
REMARK   13  A    between atoms: O_17  and  C_61 
REMARK   14  A    between atoms: O_18  and  C_63 
REMARK   15  A    between atoms: C_21  and  C_32 
REMARK   16  A    between atoms: C_23  and  C_30 
REMARK   17  A    between atoms: C_29  and  C_37 
REMARK   18  A    between atoms: C_42  and  C_54 
ROOT
ATOM      1  O   UNL d   1      20.670  32.905  19.729  0.00  0.00    -0.306 OA
ATOM      2  O   UNL d   1      20.977  35.837  17.906  0.00  0.00    -0.306 OA
ATOM      3  O   UNL d   1      18.316  33.136  17.222  0.00  0.00    -0.337 OA
ATOM      4  C   UNL d   1      20.273  34.192  18.401  0.00  0.00     0.097 A 
ATOM      5  C   UNL d   1      21.757  34.379  19.739  0.00  0.00     0.199 A 
ATOM      6  C   UNL d   1      21.040  34.700  18.794  0.00  0.00     0.231 A 
ATOM      7  C   UNL d   1      19.525  32.910  18.587  0.00  0.00     0.021 A 
ATOM      8  C   UNL d   1      17.449  31.233  17.741  0.00  0.00     0.094 A 
ATOM      9  C   UNL d   1      18.713  32.548  18.043  0.00  0.00     0.089 A 
ATOM     10  C   UNL d   1      18.294  31.629  18.294  0.00  0.00     0.020 A 
ATOM     11  C   UNL d   1      17.034  31.802  16.916  0.00  0.00     0.165 A 
ATOM     12  C   UNL d   1      19.737  35.016  17.269  0.00  0.00     0.020 A 
ATOM     13  C   UNL d   1      19.907  32.385  19.348  0.00  0.00     0.085 A 
ATOM     14  C   UNL d   1      17.470  32.760  16.654  0.00  0.00     0.192 A 
ATOM     15  C   UNL d   1      20.275  35.856  17.194  0.00  0.00     0.085 A 
ATOM     16  C   UNL d   1      18.692  31.082  19.086  0.00  0.00     0.078 A 
ATOM     17  C   UNL d   1      19.504  31.463  19.616  0.00  0.00     0.074 A 
ATOM     18  C   UNL d   1      18.945  34.828  16.619  0.00  0.00     0.078 A 
ATOM     19  C   UNL d   1      20.058  36.566  16.464  0.00  0.00     0.074 A 
ATOM     20  C   UNL d   1      18.711  35.524  15.881  0.00  0.00     0.073 A 
ATOM     21  C   UNL d   1      19.271  36.399  15.802  0.00  0.00     0.071 A 
ENDROOT
BRANCH   8  22
ATOM     22  C   UNL d   1      17.054  30.348  17.991  0.00  0.00     0.020 A 
ATOM     23  C   UNL d   1      16.325  30.301  18.673  0.00  0.00     0.088 A 
ATOM     24  O   UNL d   1      15.987  31.181  19.116  0.00  0.00    -0.337 OA
ATOM     25  C   UNL d   1      15.931  29.416  18.923  0.00  0.00     0.012 A 
ATOM     26  C   UNL d   1      15.228  31.140  19.827  0.00  0.00     0.191 A 
ATOM     27  C   UNL d   1      14.817  30.219  20.087  0.00  0.00     0.156 A 
ATOM     28  C   UNL d   1      15.170  29.351  19.632  0.00  0.00     0.079 A 
ATOM     29  C   UNL d   1      16.265  28.579  18.490  0.00  0.00     0.077 A 
ATOM     30  C   UNL d   1      16.995  28.627  17.807  0.00  0.00     0.074 A 
ATOM     31  C   UNL d   1      17.388  29.511  17.558  0.00  0.00     0.078 A 
BRANCH  26  32
ATOM     32  C   UNL d   1      14.895  31.979  20.258  0.00  0.00    -0.024 A 
ATOM     33  C   UNL d   1      13.981  32.322  20.044  0.00  0.00     0.049 A 
ATOM     34  C   UNL d   1      13.649  33.161  20.474  0.00  0.00     0.099 A 
ATOM     35  C   UNL d   1      14.230  33.657  21.119  0.00  0.00     0.098 A 
ATOM     36  C   UNL d   1      15.145  33.314  21.333  0.00  0.00     0.040 A 
ATOM     37  C   UNL d   1      15.477  32.474  20.903  0.00  0.00     0.013 A 
BRANCH  34  38
ATOM     38  O   UNL d   1      12.734  33.506  20.261  0.00  0.00    -0.358 OA
ATOM     39  H   UNL d   1      12.669  34.015  19.913  0.00  0.00     0.217 HD
ENDBRANCH  34  38
BRANCH  35  40
ATOM     40  O   UNL d   1      13.898  34.496  21.550  0.00  0.00    -0.358 OA
ATOM     41  H   UNL d   1      13.413  34.476  21.935  0.00  0.00     0.217 HD
ENDBRANCH  35  40
ENDBRANCH  26  32
BRANCH  27  42
ATOM     42  O   UNL d   1      14.087  30.168  20.770  0.00  0.00    -0.392 OA
ATOM     43  H   UNL d   1      13.603  30.555  20.736  0.00  0.00     0.210 HD
ENDBRANCH  27  42
BRANCH  29  44
ATOM     44  O   UNL d   1      15.870  27.695  18.740  0.00  0.00    -0.360 OA
ATOM     45  H   UNL d   1      15.478  27.655  19.219  0.00  0.00     0.217 HD
ENDBRANCH  29  44
BRANCH  31  46
ATOM     46  O   UNL d   1      17.925  28.909  16.967  0.00  0.00    -0.360 OA
ATOM     47  H   UNL d   1      17.638  28.519  16.579  0.00  0.00     0.217 HD
ENDBRANCH  31  46
ENDBRANCH   8  22
BRANCH  11  48
ATOM     48  O   UNL d   1      16.255  31.446  16.399  0.00  0.00    -0.392 OA
ATOM     49  H   UNL d   1      15.720  31.759  16.391  0.00  0.00     0.210 HD
ENDBRANCH  11  48
BRANCH  16  50
ATOM     50  O   UNL d   1      18.822  30.345  19.749  0.00  0.00    -0.360 OA
ATOM     51  H   UNL d   1      18.342  30.144  20.088  0.00  0.00     0.217 HD
ENDBRANCH  16  50
BRANCH  14  52
ATOM     52  C   UNL d   1      17.097  33.293  15.895  0.00  0.00    -0.024 A 
ATOM     53  C   UNL d   1      16.368  33.958  16.063  0.00  0.00     0.049 A 
ATOM     54  C   UNL d   1      15.994  34.491  15.305  0.00  0.00     0.099 A 
ATOM     55  C   UNL d   1      16.349  34.360  14.378  0.00  0.00     0.098 A 
ATOM     56  C   UNL d   1      17.077  33.696  14.211  0.00  0.00     0.040 A 
ATOM     57  C   UNL d   1      17.451  33.162  14.969  0.00  0.00     0.013 A 
BRANCH  54  58
ATOM     58  O   UNL d   1      15.266  35.156  15.472  0.00  0.00    -0.358 OA
ATOM     59  H   UNL d   1      14.850  35.278  15.029  0.00  0.00     0.217 HD
ENDBRANCH  54  58
BRANCH  55  60
ATOM     60  O   UNL d   1      15.974  34.894  13.620  0.00  0.00    -0.358 OA
ATOM     61  H   UNL d   1      16.286  34.935  13.086  0.00  0.00     0.217 HD
ENDBRANCH  55  60
ENDBRANCH  14  52
BRANCH   5  62
ATOM     62  O   UNL d   1      22.398  34.222  20.491  0.00  0.00    -0.389 OA
ATOM     63  H   UNL d   1      22.978  34.038  20.370  0.00  0.00     0.210 HD
ENDBRANCH   5  62
BRANCH   6  64
ATOM     64  C   UNL d   1      21.807  35.207  19.188  0.00  0.00     0.010 A 
ATOM     65  C   UNL d   1      21.637  36.039  19.717  0.00  0.00     0.052 A 
ATOM     66  C   UNL d   1      22.404  36.546  20.110  0.00  0.00     0.099 A 
ATOM     67  C   UNL d   1      23.340  36.222  19.974  0.00  0.00     0.098 A 
ATOM     68  C   UNL d   1      23.510  35.391  19.444  0.00  0.00     0.040 A 
ATOM     69  C   UNL d   1      22.743  34.883  19.051  0.00  0.00     0.015 A 
BRANCH  66  70
ATOM     70  O   UNL d   1      22.234  37.377  20.640  0.00  0.00    -0.358 OA
ATOM     71  H   UNL d   1      21.811  37.376  21.093  0.00  0.00     0.217 HD
ENDBRANCH  66  70
BRANCH  67  72
ATOM     72  O   UNL d   1      24.107  36.730  20.367  0.00  0.00    -0.358 OA
ATOM     73  H   UNL d   1      24.148  37.342  20.283  0.00  0.00     0.217 HD
ENDBRANCH  67  72
ENDBRANCH   6  64
BRANCH  18  74
ATOM     74  O   UNL d   1      18.414  33.985  16.703  0.00  0.00    -0.360 OA
ATOM     75  H   UNL d   1      18.691  33.436  16.627  0.00  0.00     0.217 HD
ENDBRANCH  18  74
BRANCH  21  76
ATOM     76  O   UNL d   1      19.054  37.074  15.097  0.00  0.00    -0.361 OA
ATOM     77  H   UNL d   1      19.065  36.912  14.499  0.00  0.00     0.217 HD
ENDBRANCH  21  76
TORSDOF 18
ENDMDL
