MODEL 1
REMARK VINA RESULT:    -6.727      0.000      0.000
REMARK INTER + INTRA:          -7.710
REMARK INTER:                  -7.713
REMARK INTRA:                   0.003
REMARK UNBOUND:                -0.000
REMARK  4 active torsions:
REMARK  status: ('A' for Active; 'I' for Inactive)
REMARK    1  A    between atoms: O_1  and  C_13 
REMARK    2  A    between atoms: O_4  and  C_16 
REMARK    3  A    between atoms: O_5  and  C_18 
REMARK    4  A    between atoms: C_14  and  C_18 
ROOT
ATOM      1  O   UNL d   1      31.656  33.759  26.516  0.00  0.00    -0.286 OA
ATOM      2  O   UNL d   1      35.241  35.534  26.517  0.00  0.00    -0.287 OA
ATOM      3  C   UNL d   1      34.205  34.247  25.999  0.00  0.00     0.032 A 
ATOM      4  C   UNL d   1      33.309  33.803  25.999  0.00  0.00     0.062 A 
ATOM      5  C   UNL d   1      32.692  35.047  27.034  0.00  0.00     0.062 A 
ATOM      6  C   UNL d   1      33.588  35.491  27.034  0.00  0.00     0.032 A 
ATOM      7  C   UNL d   1      32.552  34.203  26.517  0.00  0.00     0.199 A 
ATOM      8  C   UNL d   1      34.345  35.091  26.517  0.00  0.00     0.194 A 
ATOM      9  C   UNL d   1      35.002  33.842  25.464  0.00  0.00     0.026 A 
ATOM     10  C   UNL d   1      33.148  32.924  25.464  0.00  0.00     0.081 A 
ATOM     11  C   UNL d   1      34.864  32.963  24.923  0.00  0.00    -0.031 A 
ATOM     12  C   UNL d   1      33.931  32.501  24.923  0.00  0.00     0.046 A 
ATOM     13  C   UNL d   1      31.896  35.452  27.569  0.00  0.00     0.080 A 
ATOM     14  C   UNL d   1      33.750  36.370  27.569  0.00  0.00     0.017 A 
ATOM     15  C   UNL d   1      32.034  36.331  28.110  0.00  0.00     0.037 A 
ATOM     16  C   UNL d   1      32.967  36.793  28.110  0.00  0.00     0.004 A 
ENDROOT
BRANCH  11  17
ATOM     17  C   UNL d   1      35.623  32.566  24.406  0.00  0.00     0.203 C 
BRANCH  17  18
ATOM     18  O   UNL d   1      35.638  32.634  23.408  0.00  0.00    -0.396 OA
ATOM     19  H   UNL d   1      35.511  32.135  23.062  0.00  0.00     0.209 HD
ENDBRANCH  17  18
ENDBRANCH  11  17
BRANCH  10  20
ATOM     20  O   UNL d   1      32.248  32.488  25.471  0.00  0.00    -0.360 OA
ATOM     21  H   UNL d   1      31.736  32.837  25.512  0.00  0.00     0.217 HD
ENDBRANCH  10  20
BRANCH  13  22
ATOM     22  O   UNL d   1      31.004  35.000  27.562  0.00  0.00    -0.360 OA
ATOM     23  H   UNL d   1      30.918  34.479  27.888  0.00  0.00     0.217 HD
ENDBRANCH  13  22
TORSDOF 4
ENDMDL
MODEL 2
REMARK VINA RESULT:    -6.711      2.550      4.504
REMARK INTER + INTRA:          -7.692
REMARK INTER:                  -7.698
REMARK INTRA:                   0.007
REMARK UNBOUND:                -0.000
REMARK  4 active torsions:
REMARK  status: ('A' for Active; 'I' for Inactive)
REMARK    1  A    between atoms: O_1  and  C_13 
REMARK    2  A    between atoms: O_4  and  C_16 
REMARK    3  A    between atoms: O_5  and  C_18 
REMARK    4  A    between atoms: C_14  and  C_18 
ROOT
ATOM      1  O   UNL d   1      36.190  35.866  27.403  0.00  0.00    -0.286 OA
ATOM      2  O   UNL d   1      33.582  34.822  30.251  0.00  0.00    -0.287 OA
ATOM      3  C   UNL d   1      33.905  35.350  28.633  0.00  0.00     0.032 A 
ATOM      4  C   UNL d   1      34.557  35.611  27.921  0.00  0.00     0.062 A 
ATOM      5  C   UNL d   1      35.867  35.337  29.021  0.00  0.00     0.062 A 
ATOM      6  C   UNL d   1      35.215  35.076  29.733  0.00  0.00     0.032 A 
ATOM      7  C   UNL d   1      35.538  35.605  28.115  0.00  0.00     0.199 A 
ATOM      8  C   UNL d   1      34.234  35.083  29.539  0.00  0.00     0.194 A 
ATOM      9  C   UNL d   1      32.880  35.352  28.447  0.00  0.00     0.026 A 
ATOM     10  C   UNL d   1      34.229  35.892  26.974  0.00  0.00     0.081 A 
ATOM     11  C   UNL d   1      32.530  35.630  27.506  0.00  0.00    -0.031 A 
ATOM     12  C   UNL d   1      33.208  35.901  26.765  0.00  0.00     0.046 A 
ATOM     13  C   UNL d   1      36.891  35.335  29.208  0.00  0.00     0.080 A 
ATOM     14  C   UNL d   1      35.542  34.795  30.681  0.00  0.00     0.017 A 
ATOM     15  C   UNL d   1      37.241  35.058  30.149  0.00  0.00     0.037 A 
ATOM     16  C   UNL d   1      36.562  34.786  30.890  0.00  0.00     0.004 A 
ENDROOT
BRANCH  11  17
ATOM     17  C   UNL d   1      31.547  35.635  27.316  0.00  0.00     0.203 C 
BRANCH  17  18
ATOM     18  O   UNL d   1      31.146  34.921  26.742  0.00  0.00    -0.396 OA
ATOM     19  H   UNL d   1      31.254  34.324  26.869  0.00  0.00     0.209 HD
ENDBRANCH  17  18
ENDBRANCH  11  17
BRANCH  10  20
ATOM     20  O   UNL d   1      34.890  36.151  26.270  0.00  0.00    -0.360 OA
ATOM     21  H   UNL d   1      34.703  36.474  25.774  0.00  0.00     0.217 HD
ENDBRANCH  10  20
BRANCH  13  22
ATOM     22  O   UNL d   1      37.534  35.598  28.489  0.00  0.00    -0.360 OA
ATOM     23  H   UNL d   1      37.623  35.225  28.001  0.00  0.00     0.217 HD
ENDBRANCH  13  22
TORSDOF 4
ENDMDL
MODEL 3
REMARK VINA RESULT:    -6.502      3.058      4.369
REMARK INTER + INTRA:          -7.452
REMARK INTER:                  -7.448
REMARK INTRA:                  -0.005
REMARK UNBOUND:                -0.000
REMARK  4 active torsions:
REMARK  status: ('A' for Active; 'I' for Inactive)
REMARK    1  A    between atoms: O_1  and  C_13 
REMARK    2  A    between atoms: O_4  and  C_16 
REMARK    3  A    between atoms: O_5  and  C_18 
REMARK    4  A    between atoms: C_14  and  C_18 
ROOT
ATOM      1  O   UNL d   1      33.244  35.115  29.843  0.00  0.00    -0.286 OA
ATOM      2  O   UNL d   1      36.327  35.829  27.396  0.00  0.00    -0.287 OA
ATOM      3  C   UNL d   1      35.723  35.392  28.959  0.00  0.00     0.032 A 
ATOM      4  C   UNL d   1      34.952  35.213  29.571  0.00  0.00     0.062 A 
ATOM      5  C   UNL d   1      33.849  35.552  28.279  0.00  0.00     0.062 A 
ATOM      6  C   UNL d   1      34.620  35.730  27.668  0.00  0.00     0.032 A 
ATOM      7  C   UNL d   1      34.015  35.293  29.231  0.00  0.00     0.199 A 
ATOM      8  C   UNL d   1      35.557  35.650  28.008  0.00  0.00     0.194 A 
ATOM      9  C   UNL d   1      36.705  35.312  29.299  0.00  0.00     0.026 A 
ATOM     10  C   UNL d   1      35.110  34.943  30.564  0.00  0.00     0.081 A 
ATOM     11  C   UNL d   1      36.886  35.044  30.289  0.00  0.00    -0.031 A 
ATOM     12  C   UNL d   1      36.083  34.858  30.926  0.00  0.00     0.046 A 
ATOM     13  C   UNL d   1      32.868  35.631  27.939  0.00  0.00     0.080 A 
ATOM     14  C   UNL d   1      34.463  36.000  26.674  0.00  0.00     0.017 A 
ATOM     15  C   UNL d   1      32.687  35.900  26.949  0.00  0.00     0.037 A 
ATOM     16  C   UNL d   1      33.489  36.086  26.313  0.00  0.00     0.004 A 
ENDROOT
BRANCH  11  17
ATOM     17  C   UNL d   1      37.824  34.965  30.625  0.00  0.00     0.203 C 
BRANCH  17  18
ATOM     18  O   UNL d   1      38.247  35.730  31.110  0.00  0.00    -0.396 OA
ATOM     19  H   UNL d   1      38.637  36.109  30.812  0.00  0.00     0.209 HD
ENDBRANCH  17  18
ENDBRANCH  11  17
BRANCH  10  20
ATOM     20  O   UNL d   1      34.332  34.767  31.167  0.00  0.00    -0.360 OA
ATOM     21  H   UNL d   1      34.383  34.352  31.625  0.00  0.00     0.217 HD
ENDBRANCH  10  20
BRANCH  13  22
ATOM     22  O   UNL d   1      32.105  35.450  28.560  0.00  0.00    -0.360 OA
ATOM     23  H   UNL d   1      31.763  34.937  28.489  0.00  0.00     0.217 HD
ENDBRANCH  13  22
TORSDOF 4
ENDMDL
MODEL 4
REMARK VINA RESULT:    -6.446      1.628      3.373
REMARK INTER + INTRA:          -7.388
REMARK INTER:                  -7.380
REMARK INTRA:                  -0.009
REMARK UNBOUND:                -0.000
REMARK  4 active torsions:
REMARK  status: ('A' for Active; 'I' for Inactive)
REMARK    1  A    between atoms: O_1  and  C_13 
REMARK    2  A    between atoms: O_4  and  C_16 
REMARK    3  A    between atoms: O_5  and  C_18 
REMARK    4  A    between atoms: C_14  and  C_18 
ROOT
ATOM      1  O   UNL d   1      33.723  33.868  25.665  0.00  0.00    -0.286 OA
ATOM      2  O   UNL d   1      30.761  35.068  28.070  0.00  0.00    -0.287 OA
ATOM      3  C   UNL d   1      31.389  33.948  26.908  0.00  0.00     0.032 A 
ATOM      4  C   UNL d   1      32.130  33.648  26.307  0.00  0.00     0.062 A 
ATOM      5  C   UNL d   1      33.095  34.988  26.827  0.00  0.00     0.062 A 
ATOM      6  C   UNL d   1      32.355  35.288  27.429  0.00  0.00     0.032 A 
ATOM      7  C   UNL d   1      32.983  34.168  26.266  0.00  0.00     0.199 A 
ATOM      8  C   UNL d   1      31.502  34.768  27.469  0.00  0.00     0.194 A 
ATOM      9  C   UNL d   1      30.494  33.417  26.961  0.00  0.00     0.026 A 
ATOM     10  C   UNL d   1      32.027  32.796  25.717  0.00  0.00     0.081 A 
ATOM     11  C   UNL d   1      30.370  32.562  26.380  0.00  0.00    -0.031 A 
ATOM     12  C   UNL d   1      31.141  32.249  25.754  0.00  0.00     0.046 A 
ATOM     13  C   UNL d   1      33.989  35.520  26.775  0.00  0.00     0.080 A 
ATOM     14  C   UNL d   1      32.457  36.141  28.019  0.00  0.00     0.017 A 
ATOM     15  C   UNL d   1      34.114  36.375  27.356  0.00  0.00     0.037 A 
ATOM     16  C   UNL d   1      33.343  36.688  27.982  0.00  0.00     0.004 A 
ENDROOT
BRANCH  11  17
ATOM     17  C   UNL d   1      29.515  32.044  26.423  0.00  0.00     0.203 C 
BRANCH  17  18
ATOM     18  O   UNL d   1      28.756  32.282  25.817  0.00  0.00    -0.396 OA
ATOM     19  H   UNL d   1      28.858  32.369  25.211  0.00  0.00     0.209 HD
ENDBRANCH  17  18
ENDBRANCH  11  17
BRANCH  10  20
ATOM     20  O   UNL d   1      32.774  32.506  25.119  0.00  0.00    -0.360 OA
ATOM     21  H   UNL d   1      33.254  32.191  25.355  0.00  0.00     0.217 HD
ENDBRANCH  10  20
BRANCH  13  22
ATOM     22  O   UNL d   1      34.723  35.211  26.170  0.00  0.00    -0.360 OA
ATOM     23  H   UNL d   1      35.054  35.625  25.848  0.00  0.00     0.217 HD
ENDBRANCH  13  22
TORSDOF 4
ENDMDL
MODEL 5
REMARK VINA RESULT:    -6.252      1.084      4.426
REMARK INTER + INTRA:          -7.165
REMARK INTER:                  -7.213
REMARK INTRA:                   0.048
REMARK UNBOUND:                -0.000
REMARK  4 active torsions:
REMARK  status: ('A' for Active; 'I' for Inactive)
REMARK    1  A    between atoms: O_1  and  C_13 
REMARK    2  A    between atoms: O_4  and  C_16 
REMARK    3  A    between atoms: O_5  and  C_18 
REMARK    4  A    between atoms: C_14  and  C_18 
ROOT
ATOM      1  O   UNL d   1      34.989  34.594  25.274  0.00  0.00    -0.286 OA
ATOM      2  O   UNL d   1      31.475  33.756  26.991  0.00  0.00    -0.287 OA
ATOM      3  C   UNL d   1      32.865  34.780  26.839  0.00  0.00     0.032 A 
ATOM      4  C   UNL d   1      33.743  34.989  26.410  0.00  0.00     0.062 A 
ATOM      5  C   UNL d   1      33.600  33.571  25.426  0.00  0.00     0.062 A 
ATOM      6  C   UNL d   1      32.722  33.362  25.855  0.00  0.00     0.032 A 
ATOM      7  C   UNL d   1      34.111  34.385  25.703  0.00  0.00     0.199 A 
ATOM      8  C   UNL d   1      32.354  33.966  26.562  0.00  0.00     0.194 A 
ATOM      9  C   UNL d   1      32.468  35.399  27.577  0.00  0.00     0.026 A 
ATOM     10  C   UNL d   1      34.286  35.833  26.688  0.00  0.00     0.081 A 
ATOM     11  C   UNL d   1      32.995  36.249  27.871  0.00  0.00    -0.031 A 
ATOM     12  C   UNL d   1      33.909  36.467  27.424  0.00  0.00     0.046 A 
ATOM     13  C   UNL d   1      33.996  32.951  24.688  0.00  0.00     0.080 A 
ATOM     14  C   UNL d   1      32.178  32.518  25.577  0.00  0.00     0.017 A 
ATOM     15  C   UNL d   1      33.469  32.101  24.394  0.00  0.00     0.037 A 
ATOM     16  C   UNL d   1      32.555  31.883  24.841  0.00  0.00     0.004 A 
ENDROOT
BRANCH  11  17
ATOM     17  C   UNL d   1      32.623  36.851  28.578  0.00  0.00     0.203 C 
BRANCH  17  18
ATOM     18  O   UNL d   1      32.644  37.843  28.451  0.00  0.00    -0.396 OA
ATOM     19  H   UNL d   1      32.278  38.109  28.027  0.00  0.00     0.209 HD
ENDBRANCH  17  18
ENDBRANCH  11  17
BRANCH  10  20
ATOM     20  O   UNL d   1      35.164  36.032  26.252  0.00  0.00    -0.360 OA
ATOM     21  H   UNL d   1      35.568  36.412  26.530  0.00  0.00     0.217 HD
ENDBRANCH  10  20
BRANCH  13  22
ATOM     22  O   UNL d   1      34.875  33.170  24.266  0.00  0.00    -0.360 OA
ATOM     23  H   UNL d   1      34.944  33.122  23.651  0.00  0.00     0.217 HD
ENDBRANCH  13  22
TORSDOF 4
ENDMDL
