MODEL 1
REMARK VINA RESULT:    -6.256      0.000      0.000
REMARK INTER + INTRA:          -5.947
REMARK INTER:                  -6.978
REMARK INTRA:                   1.031
REMARK UNBOUND:                 1.041
REMARK  3 active torsions:
REMARK  status: ('A' for Active; 'I' for Inactive)
REMARK    1  A    between atoms: O_2  and  C_10 
REMARK    2  A    between atoms: O_4  and  C_13 
REMARK    3  A    between atoms: C_7  and  C_9 
ROOT
ATOM      1  O   UNL d   1      32.223  33.970  26.764  0.00  0.00    -0.309 OA
ATOM      2  O   UNL d   1      31.323  36.138  28.632  0.00  0.00    -0.287 OA
ATOM      3  C   UNL d   1      32.478  35.516  27.501  0.00  0.00     0.081 A 
ATOM      4  C   UNL d   1      32.778  34.793  26.878  0.00  0.00     0.095 A 
ATOM      5  C   UNL d   1      31.367  33.869  27.273  0.00  0.00     0.090 A 
ATOM      6  C   UNL d   1      31.623  35.416  28.009  0.00  0.00     0.190 A 
ATOM      7  C   UNL d   1      33.046  36.380  27.630  0.00  0.00     0.085 A 
ATOM      8  C   UNL d   1      31.067  34.592  27.895  0.00  0.00     0.094 A 
ATOM      9  C   UNL d   1      33.666  34.884  26.342  0.00  0.00     0.075 A 
ATOM     10  C   UNL d   1      34.250  35.739  26.456  0.00  0.00     0.071 A 
ATOM     11  C   UNL d   1      33.938  36.492  27.104  0.00  0.00     0.074 A 
ENDROOT
BRANCH   5  12
ATOM     12  C   UNL d   1      30.812  33.045  27.159  0.00  0.00    -0.002 A 
ATOM     13  C   UNL d   1      30.281  32.912  26.322  0.00  0.00     0.014 A 
ATOM     14  C   UNL d   1      29.725  32.089  26.208  0.00  0.00     0.001 A 
ATOM     15  C   UNL d   1      29.701  31.398  26.930  0.00  0.00     0.000 A 
ATOM     16  C   UNL d   1      30.233  31.531  27.767  0.00  0.00     0.001 A 
ATOM     17  C   UNL d   1      30.788  32.354  27.881  0.00  0.00     0.014 A 
ENDBRANCH   5  12
BRANCH   7  18
ATOM     18  O   UNL d   1      32.736  37.096  28.255  0.00  0.00    -0.360 OA
ATOM     19  H   UNL d   1      32.960  37.121  28.832  0.00  0.00     0.217 HD
ENDBRANCH   7  18
BRANCH  10  20
ATOM     20  O   UNL d   1      35.105  35.836  25.945  0.00  0.00    -0.361 OA
ATOM     21  H   UNL d   1      35.558  36.196  26.167  0.00  0.00     0.217 HD
ENDBRANCH  10  20
TORSDOF 3
ENDMDL
MODEL 2
REMARK VINA RESULT:    -6.226      2.172      4.145
REMARK INTER + INTRA:          -5.913
REMARK INTER:                  -6.922
REMARK INTRA:                   1.009
REMARK UNBOUND:                 1.041
REMARK  3 active torsions:
REMARK  status: ('A' for Active; 'I' for Inactive)
REMARK    1  A    between atoms: O_2  and  C_10 
REMARK    2  A    between atoms: O_4  and  C_13 
REMARK    3  A    between atoms: C_7  and  C_9 
ROOT
ATOM      1  O   UNL d   1      33.733  33.670  26.367  0.00  0.00    -0.309 OA
ATOM      2  O   UNL d   1      34.807  36.404  26.973  0.00  0.00    -0.287 OA
ATOM      3  C   UNL d   1      33.504  35.264  27.004  0.00  0.00     0.081 A 
ATOM      4  C   UNL d   1      33.146  34.353  26.801  0.00  0.00     0.095 A 
ATOM      5  C   UNL d   1      34.678  33.898  26.134  0.00  0.00     0.090 A 
ATOM      6  C   UNL d   1      34.449  35.493  26.771  0.00  0.00     0.190 A 
ATOM      7  C   UNL d   1      32.904  35.985  27.456  0.00  0.00     0.085 A 
ATOM      8  C   UNL d   1      35.036  34.810  26.336  0.00  0.00     0.094 A 
ATOM      9  C   UNL d   1      32.163  34.099  27.038  0.00  0.00     0.075 A 
ATOM     10  C   UNL d   1      31.546  34.805  27.491  0.00  0.00     0.071 A 
ATOM     11  C   UNL d   1      31.919  35.754  27.701  0.00  0.00     0.074 A 
ENDROOT
BRANCH   5  12
ATOM     12  C   UNL d   1      35.266  33.216  25.700  0.00  0.00    -0.002 A 
ATOM     13  C   UNL d   1      35.921  32.697  26.249  0.00  0.00     0.014 A 
ATOM     14  C   UNL d   1      36.508  32.014  25.814  0.00  0.00     0.001 A 
ATOM     15  C   UNL d   1      36.440  31.850  24.830  0.00  0.00     0.000 A 
ATOM     16  C   UNL d   1      35.785  32.368  24.281  0.00  0.00     0.001 A 
ATOM     17  C   UNL d   1      35.197  33.051  24.716  0.00  0.00     0.014 A 
ENDBRANCH   5  12
BRANCH   7  18
ATOM     18  O   UNL d   1      33.273  36.894  27.653  0.00  0.00    -0.360 OA
ATOM     19  H   UNL d   1      33.121  37.374  27.293  0.00  0.00     0.217 HD
ENDBRANCH   7  18
BRANCH  10  20
ATOM     20  O   UNL d   1      30.601  34.572  27.721  0.00  0.00    -0.361 OA
ATOM     21  H   UNL d   1      30.192  34.456  27.271  0.00  0.00     0.217 HD
ENDBRANCH  10  20
TORSDOF 3
ENDMDL
MODEL 3
REMARK VINA RESULT:    -6.159      0.867      2.187
REMARK INTER + INTRA:          -5.838
REMARK INTER:                  -6.943
REMARK INTRA:                   1.105
REMARK UNBOUND:                 1.041
REMARK  3 active torsions:
REMARK  status: ('A' for Active; 'I' for Inactive)
REMARK    1  A    between atoms: O_2  and  C_10 
REMARK    2  A    between atoms: O_4  and  C_13 
REMARK    3  A    between atoms: C_7  and  C_9 
ROOT
ATOM      1  O   UNL d   1      31.482  34.437  27.114  0.00  0.00    -0.309 OA
ATOM      2  O   UNL d   1      34.093  33.860  25.755  0.00  0.00    -0.287 OA
ATOM      3  C   UNL d   1      33.119  34.879  26.761  0.00  0.00     0.081 A 
ATOM      4  C   UNL d   1      32.249  35.072  27.214  0.00  0.00     0.095 A 
ATOM      5  C   UNL d   1      31.586  33.610  26.562  0.00  0.00     0.090 A 
ATOM      6  C   UNL d   1      33.223  34.052  26.208  0.00  0.00     0.190 A 
ATOM      7  C   UNL d   1      33.926  35.530  26.855  0.00  0.00     0.085 A 
ATOM      8  C   UNL d   1      32.456  33.418  26.109  0.00  0.00     0.094 A 
ATOM      9  C   UNL d   1      32.125  35.929  27.793  0.00  0.00     0.075 A 
ATOM     10  C   UNL d   1      32.919  36.594  27.901  0.00  0.00     0.071 A 
ATOM     11  C   UNL d   1      33.825  36.394  27.429  0.00  0.00     0.074 A 
ENDROOT
BRANCH   5  12
ATOM     12  C   UNL d   1      30.819  32.976  26.462  0.00  0.00    -0.002 A 
ATOM     13  C   UNL d   1      30.417  32.547  27.271  0.00  0.00     0.014 A 
ATOM     14  C   UNL d   1      29.651  31.912  27.172  0.00  0.00     0.001 A 
ATOM     15  C   UNL d   1      29.286  31.707  26.263  0.00  0.00     0.000 A 
ATOM     16  C   UNL d   1      29.688  32.137  25.454  0.00  0.00     0.001 A 
ATOM     17  C   UNL d   1      30.454  32.771  25.554  0.00  0.00     0.014 A 
ENDBRANCH   5  12
BRANCH   7  18
ATOM     18  O   UNL d   1      34.792  35.328  26.398  0.00  0.00    -0.360 OA
ATOM     19  H   UNL d   1      34.862  35.459  25.796  0.00  0.00     0.217 HD
ENDBRANCH   7  18
BRANCH  10  20
ATOM     20  O   UNL d   1      32.811  37.420  28.455  0.00  0.00    -0.361 OA
ATOM     21  H   UNL d   1      33.132  37.932  28.314  0.00  0.00     0.217 HD
ENDBRANCH  10  20
TORSDOF 3
ENDMDL
MODEL 4
REMARK VINA RESULT:    -5.962      1.777      4.550
REMARK INTER + INTRA:          -5.618
REMARK INTER:                  -6.617
REMARK INTRA:                   0.999
REMARK UNBOUND:                 1.041
REMARK  3 active torsions:
REMARK  status: ('A' for Active; 'I' for Inactive)
REMARK    1  A    between atoms: O_2  and  C_10 
REMARK    2  A    between atoms: O_4  and  C_13 
REMARK    3  A    between atoms: C_7  and  C_9 
ROOT
ATOM      1  O   UNL d   1      33.253  33.532  25.971  0.00  0.00    -0.309 OA
ATOM      2  O   UNL d   1      30.739  34.230  27.453  0.00  0.00    -0.287 OA
ATOM      3  C   UNL d   1      31.557  33.303  26.240  0.00  0.00     0.081 A 
ATOM      4  C   UNL d   1      32.395  33.070  25.746  0.00  0.00     0.095 A 
ATOM      5  C   UNL d   1      33.273  34.227  26.690  0.00  0.00     0.090 A 
ATOM      6  C   UNL d   1      31.577  33.997  26.959  0.00  0.00     0.190 A 
ATOM      7  C   UNL d   1      30.657  32.830  26.017  0.00  0.00     0.085 A 
ATOM      8  C   UNL d   1      32.435  34.460  27.184  0.00  0.00     0.094 A 
ATOM      9  C   UNL d   1      32.390  32.348  24.995  0.00  0.00     0.075 A 
ATOM     10  C   UNL d   1      31.500  31.862  24.755  0.00  0.00     0.071 A 
ATOM     11  C   UNL d   1      30.628  32.105  25.269  0.00  0.00     0.074 A 
ENDROOT
BRANCH   5  12
ATOM     12  C   UNL d   1      34.131  34.689  26.914  0.00  0.00    -0.002 A 
ATOM     13  C   UNL d   1      34.724  34.322  27.631  0.00  0.00     0.014 A 
ATOM     14  C   UNL d   1      35.581  34.784  27.856  0.00  0.00     0.001 A 
ATOM     15  C   UNL d   1      35.846  35.613  27.364  0.00  0.00     0.000 A 
ATOM     16  C   UNL d   1      35.253  35.981  26.648  0.00  0.00     0.001 A 
ATOM     17  C   UNL d   1      34.395  35.519  26.423  0.00  0.00     0.014 A 
ENDBRANCH   5  12
BRANCH   7  18
ATOM     18  O   UNL d   1      29.825  33.070  26.517  0.00  0.00    -0.360 OA
ATOM     19  H   UNL d   1      29.644  33.662  26.550  0.00  0.00     0.217 HD
ENDBRANCH   7  18
BRANCH  10  20
ATOM     20  O   UNL d   1      31.484  31.168  24.035  0.00  0.00    -0.361 OA
ATOM     21  H   UNL d   1      31.025  30.752  24.017  0.00  0.00     0.217 HD
ENDBRANCH  10  20
TORSDOF 3
ENDMDL
MODEL 5
REMARK VINA RESULT:    -5.897      3.899      5.178
REMARK INTER + INTRA:          -5.546
REMARK INTER:                  -6.557
REMARK INTRA:                   1.012
REMARK UNBOUND:                 1.041
REMARK  3 active torsions:
REMARK  status: ('A' for Active; 'I' for Inactive)
REMARK    1  A    between atoms: O_2  and  C_10 
REMARK    2  A    between atoms: O_4  and  C_13 
REMARK    3  A    between atoms: C_7  and  C_9 
ROOT
ATOM      1  O   UNL d   1      36.400  34.989  28.590  0.00  0.00    -0.309 OA
ATOM      2  O   UNL d   1      34.269  34.787  30.692  0.00  0.00    -0.287 OA
ATOM      3  C   UNL d   1      35.943  34.883  30.257  0.00  0.00     0.081 A 
ATOM      4  C   UNL d   1      36.653  34.951  29.556  0.00  0.00     0.095 A 
ATOM      5  C   UNL d   1      35.436  34.961  28.324  0.00  0.00     0.090 A 
ATOM      6  C   UNL d   1      34.979  34.855  29.991  0.00  0.00     0.190 A 
ATOM      7  C   UNL d   1      36.192  34.842  31.267  0.00  0.00     0.085 A 
ATOM      8  C   UNL d   1      34.726  34.894  29.025  0.00  0.00     0.094 A 
ATOM      9  C   UNL d   1      37.661  34.981  29.817  0.00  0.00     0.075 A 
ATOM     10  C   UNL d   1      37.933  34.941  30.822  0.00  0.00     0.071 A 
ATOM     11  C   UNL d   1      37.194  34.871  31.552  0.00  0.00     0.074 A 
ENDROOT
BRANCH   5  12
ATOM     12  C   UNL d   1      35.183  35.000  27.357  0.00  0.00    -0.002 A 
ATOM     13  C   UNL d   1      35.245  34.178  26.791  0.00  0.00     0.014 A 
ATOM     14  C   UNL d   1      34.992  34.217  25.824  0.00  0.00     0.001 A 
ATOM     15  C   UNL d   1      34.676  35.077  25.424  0.00  0.00     0.000 A 
ATOM     16  C   UNL d   1      34.614  35.899  25.991  0.00  0.00     0.001 A 
ATOM     17  C   UNL d   1      34.867  35.860  26.957  0.00  0.00     0.014 A 
ENDBRANCH   5  12
BRANCH   7  18
ATOM     18  O   UNL d   1      35.473  34.775  31.960  0.00  0.00    -0.360 OA
ATOM     19  H   UNL d   1      35.011  35.187  31.967  0.00  0.00     0.217 HD
ENDBRANCH   7  18
BRANCH  10  20
ATOM     20  O   UNL d   1      38.898  34.970  31.084  0.00  0.00    -0.361 OA
ATOM     21  H   UNL d   1      39.058  35.134  31.660  0.00  0.00     0.217 HD
ENDBRANCH  10  20
TORSDOF 3
ENDMDL
