MODEL 1
REMARK VINA RESULT:    -6.134      0.000      0.000
REMARK INTER + INTRA:          -3.860
REMARK INTER:                  -6.879
REMARK INTRA:                   3.019
REMARK UNBOUND:                 2.992
REMARK  2 active torsions:
REMARK  status: ('A' for Active; 'I' for Inactive)
REMARK    1  A    between atoms: O_3  and  C_17 
REMARK    2  A    between atoms: O_4  and  C_21 
ROOT
ATOM      1  O   UNL d   1      38.749  34.057  32.683  0.00  0.00    -0.323 OA
ATOM      2  O   UNL d   1      37.913  33.909  34.128  0.00  0.00    -0.323 OA
ATOM      3  N   UNL d   1      34.724  35.030  30.845  0.00  0.00    -0.400 N 
ATOM      4  C   UNL d   1      35.712  34.882  30.822  0.00  0.00     0.117 A 
ATOM      5  C   UNL d   1      36.246  34.970  29.932  0.00  0.00     0.069 A 
ATOM      6  C   UNL d   1      36.202  34.645  31.661  0.00  0.00    -0.026 A 
ATOM      7  C   UNL d   1      34.225  34.941  31.707  0.00  0.00     0.122 A 
ATOM      8  C   UNL d   1      34.200  35.276  29.979  0.00  0.00     0.160 A 
ATOM      9  C   UNL d   1      34.714  34.705  32.546  0.00  0.00     0.058 A 
ATOM     10  C   UNL d   1      35.703  34.557  32.523  0.00  0.00    -0.045 A 
ATOM     11  C   UNL d   1      35.743  35.216  29.054  0.00  0.00    -0.045 A 
ATOM     12  C   UNL d   1      34.714  35.370  29.077  0.00  0.00     0.002 A 
ATOM     13  C   UNL d   1      37.232  34.494  31.622  0.00  0.00     0.049 A 
ATOM     14  C   UNL d   1      36.199  34.311  33.406  0.00  0.00     0.047 A 
ATOM     15  C   UNL d   1      34.168  35.627  28.176  0.00  0.00     0.110 A 
ATOM     16  C   UNL d   1      36.299  35.308  28.126  0.00  0.00     0.011 A 
ATOM     17  C   UNL d   1      37.750  34.247  32.492  0.00  0.00     0.105 A 
ATOM     18  C   UNL d   1      37.230  34.156  33.390  0.00  0.00     0.105 A 
ATOM     19  C   UNL d   1      34.702  35.725  27.236  0.00  0.00     0.102 A 
ATOM     20  C   UNL d   1      35.775  35.564  27.211  0.00  0.00     0.040 A 
ATOM     21  C   UNL d   1      38.849  33.848  33.692  0.00  0.00     0.352 A 
ENDROOT
BRANCH  15  22
ATOM     22  O   UNL d   1      33.179  35.773  28.209  0.00  0.00    -0.352 OA
ATOM     23  C   UNL d   1      32.813  36.696  28.324  0.00  0.00     0.210 C 
ENDBRANCH  15  22
BRANCH  19  24
ATOM     24  O   UNL d   1      34.209  35.961  26.399  0.00  0.00    -0.353 OA
ATOM     25  C   UNL d   1      34.533  35.623  25.515  0.00  0.00     0.210 C 
ENDBRANCH  19  24
TORSDOF 2
ENDMDL
MODEL 2
REMARK VINA RESULT:    -6.129      4.058      5.717
REMARK INTER + INTRA:          -3.854
REMARK INTER:                  -6.831
REMARK INTRA:                   2.977
REMARK UNBOUND:                 2.992
REMARK  2 active torsions:
REMARK  status: ('A' for Active; 'I' for Inactive)
REMARK    1  A    between atoms: O_3  and  C_17 
REMARK    2  A    between atoms: O_4  and  C_21 
ROOT
ATOM      1  O   UNL d   1      35.871  34.585  27.988  0.00  0.00    -0.323 OA
ATOM      2  O   UNL d   1      35.334  35.575  29.229  0.00  0.00    -0.323 OA
ATOM      3  N   UNL d   1      31.483  33.893  27.099  0.00  0.00    -0.400 N 
ATOM      4  C   UNL d   1      32.463  33.768  26.947  0.00  0.00     0.117 A 
ATOM      5  C   UNL d   1      32.813  33.157  26.179  0.00  0.00     0.069 A 
ATOM      6  C   UNL d   1      33.124  34.235  27.536  0.00  0.00    -0.026 A 
ATOM      7  C   UNL d   1      31.162  34.483  27.840  0.00  0.00     0.122 A 
ATOM      8  C   UNL d   1      30.784  33.413  26.494  0.00  0.00     0.160 A 
ATOM      9  C   UNL d   1      31.823  34.949  28.428  0.00  0.00     0.058 A 
ATOM     10  C   UNL d   1      32.803  34.825  28.276  0.00  0.00    -0.045 A 
ATOM     11  C   UNL d   1      32.131  32.668  25.562  0.00  0.00    -0.045 A 
ATOM     12  C   UNL d   1      31.110  32.797  25.720  0.00  0.00     0.002 A 
ATOM     13  C   UNL d   1      34.142  34.096  27.365  0.00  0.00     0.049 A 
ATOM     14  C   UNL d   1      33.479  35.318  28.898  0.00  0.00     0.047 A 
ATOM     15  C   UNL d   1      30.381  32.298  25.090  0.00  0.00     0.110 A 
ATOM     16  C   UNL d   1      32.494  32.030  24.763  0.00  0.00     0.011 A 
ATOM     17  C   UNL d   1      34.836  34.578  27.974  0.00  0.00     0.105 A 
ATOM     18  C   UNL d   1      34.502  35.193  28.746  0.00  0.00     0.105 A 
ATOM     19  C   UNL d   1      30.720  31.656  24.284  0.00  0.00     0.102 A 
ATOM     20  C   UNL d   1      31.784  31.521  24.119  0.00  0.00     0.040 A 
ATOM     21  C   UNL d   1      36.178  35.201  28.762  0.00  0.00     0.352 A 
ENDROOT
BRANCH  15  22
ATOM     22  O   UNL d   1      29.403  32.429  25.251  0.00  0.00    -0.352 OA
ATOM     23  C   UNL d   1      28.908  31.809  25.860  0.00  0.00     0.210 C 
ENDBRANCH  15  22
BRANCH  19  24
ATOM     24  O   UNL d   1      30.058  31.191  23.698  0.00  0.00    -0.353 OA
ATOM     25  C   UNL d   1      30.361  30.745  22.856  0.00  0.00     0.210 C 
ENDBRANCH  19  24
TORSDOF 2
ENDMDL
MODEL 3
REMARK VINA RESULT:    -6.110      3.299      6.528
REMARK INTER + INTRA:          -3.832
REMARK INTER:                  -6.900
REMARK INTRA:                   3.068
REMARK UNBOUND:                 2.992
REMARK  2 active torsions:
REMARK  status: ('A' for Active; 'I' for Inactive)
REMARK    1  A    between atoms: O_3  and  C_17 
REMARK    2  A    between atoms: O_4  and  C_21 
ROOT
ATOM      1  O   UNL d   1      31.776  31.855  24.402  0.00  0.00    -0.323 OA
ATOM      2  O   UNL d   1      30.145  32.028  24.748  0.00  0.00    -0.323 OA
ATOM      3  N   UNL d   1      32.482  34.323  28.136  0.00  0.00    -0.400 N 
ATOM      4  C   UNL d   1      32.770  33.805  27.330  0.00  0.00     0.117 A 
ATOM      5  C   UNL d   1      33.780  33.689  27.102  0.00  0.00     0.069 A 
ATOM      6  C   UNL d   1      32.085  33.390  26.731  0.00  0.00    -0.026 A 
ATOM      7  C   UNL d   1      31.509  34.426  28.342  0.00  0.00     0.122 A 
ATOM      8  C   UNL d   1      33.184  34.761  28.769  0.00  0.00     0.160 A 
ATOM      9  C   UNL d   1      30.824  34.012  27.743  0.00  0.00     0.058 A 
ATOM     10  C   UNL d   1      31.113  33.494  26.938  0.00  0.00    -0.045 A 
ATOM     11  C   UNL d   1      34.499  34.118  27.721  0.00  0.00    -0.045 A 
ATOM     12  C   UNL d   1      34.200  34.657  28.560  0.00  0.00     0.002 A 
ATOM     13  C   UNL d   1      32.401  32.854  25.896  0.00  0.00     0.049 A 
ATOM     14  C   UNL d   1      30.387  33.067  26.323  0.00  0.00     0.047 A 
ATOM     15  C   UNL d   1      34.930  35.113  29.220  0.00  0.00     0.110 A 
ATOM     16  C   UNL d   1      35.551  33.997  27.484  0.00  0.00     0.011 A 
ATOM     17  C   UNL d   1      31.693  32.418  25.267  0.00  0.00     0.105 A 
ATOM     18  C   UNL d   1      30.680  32.526  25.482  0.00  0.00     0.105 A 
ATOM     19  C   UNL d   1      35.988  35.006  29.003  0.00  0.00     0.102 A 
ATOM     20  C   UNL d   1      36.301  34.444  28.129  0.00  0.00     0.040 A 
ATOM     21  C   UNL d   1      30.821  31.614  24.083  0.00  0.00     0.352 A 
ENDROOT
BRANCH  15  22
ATOM     22  O   UNL d   1      34.632  35.629  30.022  0.00  0.00    -0.352 OA
ATOM     23  C   UNL d   1      34.503  35.163  30.898  0.00  0.00     0.210 C 
ENDBRANCH  15  22
BRANCH  19  24
ATOM     24  O   UNL d   1      36.670  35.422  29.604  0.00  0.00    -0.353 OA
ATOM     25  C   UNL d   1      37.625  35.130  29.554  0.00  0.00     0.210 C 
ENDBRANCH  19  24
TORSDOF 2
ENDMDL
MODEL 4
REMARK VINA RESULT:    -6.106      5.405      7.946
REMARK INTER + INTRA:          -3.829
REMARK INTER:                  -6.834
REMARK INTRA:                   3.006
REMARK UNBOUND:                 2.992
REMARK  2 active torsions:
REMARK  status: ('A' for Active; 'I' for Inactive)
REMARK    1  A    between atoms: O_3  and  C_17 
REMARK    2  A    between atoms: O_4  and  C_21 
ROOT
ATOM      1  O   UNL d   1      27.885  31.151  25.092  0.00  0.00    -0.323 OA
ATOM      2  O   UNL d   1      27.485  29.792  25.990  0.00  0.00    -0.323 OA
ATOM      3  N   UNL d   1      30.702  32.153  28.497  0.00  0.00    -0.400 N 
ATOM      4  C   UNL d   1      30.265  32.314  27.611  0.00  0.00     0.117 A 
ATOM      5  C   UNL d   1      30.503  33.153  27.042  0.00  0.00     0.069 A 
ATOM      6  C   UNL d   1      29.591  31.664  27.261  0.00  0.00    -0.026 A 
ATOM      7  C   UNL d   1      30.463  31.343  29.032  0.00  0.00     0.122 A 
ATOM      8  C   UNL d   1      31.406  32.821  28.874  0.00  0.00     0.160 A 
ATOM      9  C   UNL d   1      29.789  30.693  28.682  0.00  0.00     0.058 A 
ATOM     10  C   UNL d   1      29.352  30.854  27.796  0.00  0.00    -0.045 A 
ATOM     11  C   UNL d   1      31.205  33.835  27.400  0.00  0.00    -0.045 A 
ATOM     12  C   UNL d   1      31.659  33.668  28.322  0.00  0.00     0.002 A 
ATOM     13  C   UNL d   1      29.145  31.844  26.337  0.00  0.00     0.049 A 
ATOM     14  C   UNL d   1      28.652  30.168  27.445  0.00  0.00     0.047 A 
ATOM     15  C   UNL d   1      32.393  34.363  28.715  0.00  0.00     0.110 A 
ATOM     16  C   UNL d   1      31.453  34.709  26.807  0.00  0.00     0.011 A 
ATOM     17  C   UNL d   1      28.441  31.172  25.965  0.00  0.00     0.105 A 
ATOM     18  C   UNL d   1      28.193  30.328  26.523  0.00  0.00     0.105 A 
ATOM     19  C   UNL d   1      32.657  35.245  28.141  0.00  0.00     0.102 A 
ATOM     20  C   UNL d   1      32.184  35.419  27.180  0.00  0.00     0.040 A 
ATOM     21  C   UNL d   1      27.295  30.299  25.108  0.00  0.00     0.352 A 
ENDROOT
BRANCH  15  22
ATOM     22  O   UNL d   1      32.823  34.194  29.602  0.00  0.00    -0.352 OA
ATOM     23  C   UNL d   1      33.659  33.647  29.656  0.00  0.00     0.210 C 
ENDBRANCH  15  22
BRANCH  19  24
ATOM     24  O   UNL d   1      33.332  35.893  28.494  0.00  0.00    -0.353 OA
ATOM     25  C   UNL d   1      33.599  36.685  27.946  0.00  0.00     0.210 C 
ENDBRANCH  19  24
TORSDOF 2
ENDMDL
MODEL 5
REMARK VINA RESULT:    -6.016      1.213      2.338
REMARK INTER + INTRA:          -3.728
REMARK INTER:                  -6.757
REMARK INTRA:                   3.028
REMARK UNBOUND:                 2.992
REMARK  2 active torsions:
REMARK  status: ('A' for Active; 'I' for Inactive)
REMARK    1  A    between atoms: O_3  and  C_17 
REMARK    2  A    between atoms: O_4  and  C_21 
ROOT
ATOM      1  O   UNL d   1      36.272  34.164  33.559  0.00  0.00    -0.323 OA
ATOM      2  O   UNL d   1      37.936  34.354  33.471  0.00  0.00    -0.323 OA
ATOM      3  N   UNL d   1      36.258  35.232  29.156  0.00  0.00    -0.400 N 
ATOM      4  C   UNL d   1      35.829  34.978  30.022  0.00  0.00     0.117 A 
ATOM      5  C   UNL d   1      34.797  34.857  30.093  0.00  0.00     0.069 A 
ATOM      6  C   UNL d   1      36.392  34.837  30.837  0.00  0.00    -0.026 A 
ATOM      7  C   UNL d   1      37.250  35.345  29.103  0.00  0.00     0.122 A 
ATOM      8  C   UNL d   1      35.685  35.382  28.299  0.00  0.00     0.160 A 
ATOM      9  C   UNL d   1      37.814  35.204  29.917  0.00  0.00     0.058 A 
ATOM     10  C   UNL d   1      37.385  34.950  30.784  0.00  0.00    -0.045 A 
ATOM     11  C   UNL d   1      34.204  35.002  29.249  0.00  0.00    -0.045 A 
ATOM     12  C   UNL d   1      34.651  35.266  28.347  0.00  0.00     0.002 A 
ATOM     13  C   UNL d   1      35.931  34.573  31.733  0.00  0.00     0.049 A 
ATOM     14  C   UNL d   1      37.984  34.807  31.624  0.00  0.00     0.047 A 
ATOM     15  C   UNL d   1      34.054  35.422  27.454  0.00  0.00     0.110 A 
ATOM     16  C   UNL d   1      33.129  34.875  29.322  0.00  0.00     0.011 A 
ATOM     17  C   UNL d   1      36.511  34.425  32.586  0.00  0.00     0.105 A 
ATOM     18  C   UNL d   1      37.544  34.542  32.531  0.00  0.00     0.105 A 
ATOM     19  C   UNL d   1      32.976  35.301  27.503  0.00  0.00     0.102 A 
ATOM     20  C   UNL d   1      32.511  35.026  28.444  0.00  0.00     0.040 A 
ATOM     21  C   UNL d   1      37.151  34.121  34.104  0.00  0.00     0.352 A 
ENDROOT
BRANCH  15  22
ATOM     22  O   UNL d   1      34.492  35.676  26.592  0.00  0.00    -0.352 OA
ATOM     23  C   UNL d   1      34.827  34.966  25.973  0.00  0.00     0.210 C 
ENDBRANCH  15  22
BRANCH  19  24
ATOM     24  O   UNL d   1      32.416  35.443  26.687  0.00  0.00    -0.353 OA
ATOM     25  C   UNL d   1      31.462  35.146  26.677  0.00  0.00     0.210 C 
ENDBRANCH  19  24
TORSDOF 2
ENDMDL
