MODEL 1
REMARK VINA RESULT:    -7.791      0.000      0.000
REMARK INTER + INTRA:          -7.671
REMARK INTER:                  -9.026
REMARK INTRA:                   1.355
REMARK UNBOUND:                 1.031
REMARK  3 active torsions:
REMARK  status: ('A' for Active; 'I' for Inactive)
REMARK    1  A    between atoms: O_2  and  C_10 
REMARK    2  A    between atoms: O_4  and  C_13 
REMARK    3  A    between atoms: C_7  and  C_9 
ROOT
ATOM      1  O   UNL d   1      12.516  11.637  14.642  0.00  0.00    -0.309 OA
ATOM      2  O   UNL d   1      12.110  14.265  13.252  0.00  0.00    -0.287 OA
ATOM      3  C   UNL d   1      13.080  13.225  14.241  0.00  0.00     0.081 A 
ATOM      4  C   UNL d   1      13.216  12.349  14.704  0.00  0.00     0.095 A 
ATOM      5  C   UNL d   1      11.681  11.801  14.117  0.00  0.00     0.090 A 
ATOM      6  C   UNL d   1      12.246  13.389  13.715  0.00  0.00     0.190 A 
ATOM      7  C   UNL d   1      13.800  13.975  14.297  0.00  0.00     0.085 A 
ATOM      8  C   UNL d   1      11.546  12.677  13.653  0.00  0.00     0.094 A 
ATOM      9  C   UNL d   1      14.080  12.163  15.255  0.00  0.00     0.075 A 
ATOM     10  C   UNL d   1      14.813  12.900  15.324  0.00  0.00     0.071 A 
ATOM     11  C   UNL d   1      14.672  13.812  14.842  0.00  0.00     0.074 A 
ENDROOT
BRANCH   5  12
ATOM     12  C   UNL d   1      10.982  11.090  14.054  0.00  0.00    -0.002 A 
ATOM     13  C   UNL d   1      11.233  10.130  14.179  0.00  0.00     0.014 A 
ATOM     14  C   UNL d   1      10.533   9.418  14.117  0.00  0.00     0.001 A 
ATOM     15  C   UNL d   1       9.583   9.666  13.930  0.00  0.00     0.000 A 
ATOM     16  C   UNL d   1       9.332  10.626  13.806  0.00  0.00     0.001 A 
ATOM     17  C   UNL d   1      10.031  11.338  13.868  0.00  0.00     0.014 A 
ENDBRANCH   5  12
BRANCH   7  18
ATOM     18  O   UNL d   1      13.654  14.847  13.829  0.00  0.00    -0.360 OA
ATOM     19  H   UNL d   1      13.158  14.925  13.467  0.00  0.00     0.217 HD
ENDBRANCH   7  18
BRANCH  10  20
ATOM     20  O   UNL d   1      15.647  12.732  15.851  0.00  0.00    -0.361 OA
ATOM     21  H   UNL d   1      15.937  13.204  16.130  0.00  0.00     0.217 HD
ENDBRANCH  10  20
TORSDOF 3
ENDMDL
MODEL 2
REMARK VINA RESULT:    -7.738      0.902      2.195
REMARK INTER + INTRA:          -7.612
REMARK INTER:                  -9.004
REMARK INTRA:                   1.392
REMARK UNBOUND:                 1.031
REMARK  3 active torsions:
REMARK  status: ('A' for Active; 'I' for Inactive)
REMARK    1  A    between atoms: O_2  and  C_10 
REMARK    2  A    between atoms: O_4  and  C_13 
REMARK    3  A    between atoms: C_7  and  C_9 
ROOT
ATOM      1  O   UNL d   1      11.654  12.700  13.763  0.00  0.00    -0.309 OA
ATOM      2  O   UNL d   1      14.125  12.033  15.329  0.00  0.00    -0.287 OA
ATOM      3  C   UNL d   1      13.202  13.159  14.390  0.00  0.00     0.081 A 
ATOM      4  C   UNL d   1      12.379  13.381  13.869  0.00  0.00     0.095 A 
ATOM      5  C   UNL d   1      11.754  11.796  14.180  0.00  0.00     0.090 A 
ATOM      6  C   UNL d   1      13.302  12.256  14.807  0.00  0.00     0.190 A 
ATOM      7  C   UNL d   1      13.965  13.859  14.508  0.00  0.00     0.085 A 
ATOM      8  C   UNL d   1      12.577  11.574  14.702  0.00  0.00     0.094 A 
ATOM      9  C   UNL d   1      12.261  14.318  13.428  0.00  0.00     0.075 A 
ATOM     10  C   UNL d   1      13.011  15.033  13.534  0.00  0.00     0.071 A 
ATOM     11  C   UNL d   1      13.868  14.802  14.077  0.00  0.00     0.074 A 
ENDROOT
BRANCH   5  12
ATOM     12  C   UNL d   1      11.029  11.115  14.075  0.00  0.00    -0.002 A 
ATOM     13  C   UNL d   1      10.111  11.400  13.800  0.00  0.00     0.014 A 
ATOM     14  C   UNL d   1       9.387  10.718  13.695  0.00  0.00     0.001 A 
ATOM     15  C   UNL d   1       9.581   9.752  13.865  0.00  0.00     0.000 A 
ATOM     16  C   UNL d   1      10.499   9.467  14.140  0.00  0.00     0.001 A 
ATOM     17  C   UNL d   1      11.223  10.149  14.245  0.00  0.00     0.014 A 
ENDBRANCH   5  12
BRANCH   7  18
ATOM     18  O   UNL d   1      14.784  13.625  15.032  0.00  0.00    -0.360 OA
ATOM     19  H   UNL d   1      14.736  13.280  15.544  0.00  0.00     0.217 HD
ENDBRANCH   7  18
BRANCH  10  20
ATOM     20  O   UNL d   1      12.908  15.936  13.115  0.00  0.00    -0.361 OA
ATOM     21  H   UNL d   1      12.826  15.985  12.503  0.00  0.00     0.217 HD
ENDBRANCH  10  20
TORSDOF 3
ENDMDL
MODEL 3
REMARK VINA RESULT:    -6.951     13.303     14.482
REMARK INTER + INTRA:          -6.733
REMARK INTER:                  -7.855
REMARK INTRA:                   1.123
REMARK UNBOUND:                 1.031
REMARK  3 active torsions:
REMARK  status: ('A' for Active; 'I' for Inactive)
REMARK    1  A    between atoms: O_2  and  C_10 
REMARK    2  A    between atoms: O_4  and  C_13 
REMARK    3  A    between atoms: C_7  and  C_9 
ROOT
ATOM      1  O   UNL d   1       8.954   4.009  24.217  0.00  0.00    -0.309 OA
ATOM      2  O   UNL d   1       7.183   2.255  25.887  0.00  0.00    -0.287 OA
ATOM      3  C   UNL d   1       7.586   3.819  25.263  0.00  0.00     0.081 A 
ATOM      4  C   UNL d   1       8.176   4.404  24.706  0.00  0.00     0.095 A 
ATOM      5  C   UNL d   1       9.141   3.029  24.285  0.00  0.00     0.090 A 
ATOM      6  C   UNL d   1       7.774   2.839  25.330  0.00  0.00     0.190 A 
ATOM      7  C   UNL d   1       6.773   4.217  25.778  0.00  0.00     0.085 A 
ATOM      8  C   UNL d   1       8.551   2.444  24.841  0.00  0.00     0.094 A 
ATOM      9  C   UNL d   1       7.994   5.427  24.626  0.00  0.00     0.075 A 
ATOM     10  C   UNL d   1       7.185   5.845  25.133  0.00  0.00     0.071 A 
ATOM     11  C   UNL d   1       6.571   5.237  25.712  0.00  0.00     0.074 A 
ENDROOT
BRANCH   5  12
ATOM     12  C   UNL d   1       9.919   2.634  23.796  0.00  0.00    -0.002 A 
ATOM     13  C   UNL d   1       9.774   1.891  23.143  0.00  0.00     0.014 A 
ATOM     14  C   UNL d   1      10.551   1.496  22.654  0.00  0.00     0.001 A 
ATOM     15  C   UNL d   1      11.474   1.844  22.818  0.00  0.00     0.000 A 
ATOM     16  C   UNL d   1      11.620   2.588  23.471  0.00  0.00     0.001 A 
ATOM     17  C   UNL d   1      10.842   2.983  23.960  0.00  0.00     0.014 A 
ENDBRANCH   5  12
BRANCH   7  18
ATOM     18  O   UNL d   1       6.189   3.622  26.331  0.00  0.00    -0.360 OA
ATOM     19  H   UNL d   1       6.229   3.638  26.949  0.00  0.00     0.217 HD
ENDBRANCH   7  18
BRANCH  10  20
ATOM     20  O   UNL d   1       7.001   6.826  25.063  0.00  0.00    -0.361 OA
ATOM     21  H   UNL d   1       7.438   7.235  25.224  0.00  0.00     0.217 HD
ENDBRANCH  10  20
TORSDOF 3
ENDMDL
MODEL 4
REMARK VINA RESULT:    -6.877     13.327     14.414
REMARK INTER + INTRA:          -6.650
REMARK INTER:                  -7.651
REMARK INTRA:                   1.001
REMARK UNBOUND:                 1.031
REMARK  3 active torsions:
REMARK  status: ('A' for Active; 'I' for Inactive)
REMARK    1  A    between atoms: O_2  and  C_10 
REMARK    2  A    between atoms: O_4  and  C_13 
REMARK    3  A    between atoms: C_7  and  C_9 
ROOT
ATOM      1  O   UNL d   1       9.121   3.843  24.284  0.00  0.00    -0.309 OA
ATOM      2  O   UNL d   1       9.561   3.671  27.247  0.00  0.00    -0.287 OA
ATOM      3  C   UNL d   1       8.761   4.388  25.889  0.00  0.00     0.081 A 
ATOM      4  C   UNL d   1       8.614   4.446  24.901  0.00  0.00     0.095 A 
ATOM      5  C   UNL d   1       9.774   3.183  24.655  0.00  0.00     0.090 A 
ATOM      6  C   UNL d   1       9.414   3.728  26.259  0.00  0.00     0.190 A 
ATOM      7  C   UNL d   1       8.240   5.009  26.543  0.00  0.00     0.085 A 
ATOM      8  C   UNL d   1       9.921   3.126  25.643  0.00  0.00     0.094 A 
ATOM      9  C   UNL d   1       7.937   5.128  24.500  0.00  0.00     0.075 A 
ATOM     10  C   UNL d   1       7.405   5.759  25.136  0.00  0.00     0.071 A 
ATOM     11  C   UNL d   1       7.558   5.699  26.164  0.00  0.00     0.074 A 
ENDROOT
BRANCH   5  12
ATOM     12  C   UNL d   1      10.281   2.581  24.039  0.00  0.00    -0.002 A 
ATOM     13  C   UNL d   1      11.129   2.898  23.615  0.00  0.00     0.014 A 
ATOM     14  C   UNL d   1      11.636   2.296  22.999  0.00  0.00     0.001 A 
ATOM     15  C   UNL d   1      11.295   1.376  22.806  0.00  0.00     0.000 A 
ATOM     16  C   UNL d   1      10.446   1.059  23.229  0.00  0.00     0.001 A 
ATOM     17  C   UNL d   1       9.939   1.661  23.846  0.00  0.00     0.014 A 
ENDBRANCH   5  12
BRANCH   7  18
ATOM     18  O   UNL d   1       8.395   4.943  27.529  0.00  0.00    -0.360 OA
ATOM     19  H   UNL d   1       8.412   5.457  27.874  0.00  0.00     0.217 HD
ENDBRANCH   7  18
BRANCH  10  20
ATOM     20  O   UNL d   1       6.752   6.417  24.760  0.00  0.00    -0.361 OA
ATOM     21  H   UNL d   1       6.199   6.491  25.029  0.00  0.00     0.217 HD
ENDBRANCH  10  20
TORSDOF 3
ENDMDL
MODEL 5
REMARK VINA RESULT:    -6.668     13.604     14.540
REMARK INTER + INTRA:          -6.416
REMARK INTER:                  -7.703
REMARK INTRA:                   1.287
REMARK UNBOUND:                 1.031
REMARK  3 active torsions:
REMARK  status: ('A' for Active; 'I' for Inactive)
REMARK    1  A    between atoms: O_2  and  C_10 
REMARK    2  A    between atoms: O_4  and  C_13 
REMARK    3  A    between atoms: C_7  and  C_9 
ROOT
ATOM      1  O   UNL d   1       9.594   1.361  23.411  0.00  0.00    -0.309 OA
ATOM      2  O   UNL d   1      10.997   3.818  24.410  0.00  0.00    -0.287 OA
ATOM      3  C   UNL d   1       9.530   2.975  24.038  0.00  0.00     0.081 A 
ATOM      4  C   UNL d   1       9.062   2.156  23.705  0.00  0.00     0.095 A 
ATOM      5  C   UNL d   1      10.593   1.386  23.450  0.00  0.00     0.090 A 
ATOM      6  C   UNL d   1      10.529   2.999  24.077  0.00  0.00     0.190 A 
ATOM      7  C   UNL d   1       8.990   3.809  24.348  0.00  0.00     0.085 A 
ATOM      8  C   UNL d   1      11.060   2.204  23.783  0.00  0.00     0.094 A 
ATOM      9  C   UNL d   1       8.022   2.115  23.659  0.00  0.00     0.075 A 
ATOM     10  C   UNL d   1       7.462   2.939  23.964  0.00  0.00     0.071 A 
ATOM     11  C   UNL d   1       7.949   3.791  24.310  0.00  0.00     0.074 A 
ENDROOT
BRANCH   5  12
ATOM     12  C   UNL d   1      11.124   0.591  23.155  0.00  0.00    -0.002 A 
ATOM     13  C   UNL d   1      11.986   0.369  23.612  0.00  0.00     0.014 A 
ATOM     14  C   UNL d   1      12.517  -0.426  23.317  0.00  0.00     0.001 A 
ATOM     15  C   UNL d   1      12.186  -0.998  22.567  0.00  0.00     0.000 A 
ATOM     16  C   UNL d   1      11.324  -0.776  22.111  0.00  0.00     0.001 A 
ATOM     17  C   UNL d   1      10.793   0.019  22.405  0.00  0.00     0.014 A 
ENDBRANCH   5  12
BRANCH   7  18
ATOM     18  O   UNL d   1       9.469   4.623  24.679  0.00  0.00    -0.360 OA
ATOM     19  H   UNL d   1       9.410   5.161  24.377  0.00  0.00     0.217 HD
ENDBRANCH   7  18
BRANCH  10  20
ATOM     20  O   UNL d   1       6.463   2.911  23.923  0.00  0.00    -0.361 OA
ATOM     21  H   UNL d   1       6.150   3.389  23.685  0.00  0.00     0.217 HD
ENDBRANCH  10  20
TORSDOF 3
ENDMDL
