MODEL 1
REMARK VINA RESULT:    -3.148      0.000      0.000
REMARK INTER + INTRA:          -3.148
REMARK INTER:                  -3.148
REMARK INTRA:                   0.000
REMARK UNBOUND:                 0.000
REMARK  0 active torsions:
REMARK  status: ('A' for Active; 'I' for Inactive)
ROOT
ATOM      1  O   UNL d   1      18.366  38.586   3.437  0.00  0.00    -0.265 OA
ATOM      2  O   UNL d   1      16.399  36.696   1.302  0.00  0.00    -0.246 OA
ATOM      3  N   UNL d   1      17.571  37.794   0.654  0.00  0.00    -0.286 N 
ATOM      4  N   UNL d   1      19.275  39.420   1.651  0.00  0.00    -0.338 N 
ATOM      5  N   UNL d   1      17.382  37.641   2.369  0.00  0.00    -0.269 N 
ATOM      6  N   UNL d   1      18.849  38.995   0.158  0.00  0.00    -0.223 NA
ATOM      7  C   UNL d   1      18.554  38.739   1.722  0.00  0.00     0.151 A 
ATOM      8  C   UNL d   1      18.289  38.475   0.794  0.00  0.00     0.167 A 
ATOM      9  C   UNL d   1      18.101  38.322   2.509  0.00  0.00     0.282 A 
ATOM     10  C   UNL d   1      17.117  37.377   1.442  0.00  0.00     0.332 A 
ATOM     11  C   UNL d   1      19.457  39.578   0.686  0.00  0.00     0.212 A 
ATOM     12  C   UNL d   1      17.306  37.530  -0.273  0.00  0.00     0.163 C 
ATOM     13  C   UNL d   1      19.738  39.868   2.416  0.00  0.00     0.157 C 
ATOM     14  C   UNL d   1      16.929  37.223   3.157  0.00  0.00     0.164 C 
ENDROOT
TORSDOF 0
ENDMDL
MODEL 2
REMARK VINA RESULT:    -3.136      1.326      2.135
REMARK INTER + INTRA:          -3.136
REMARK INTER:                  -3.136
REMARK INTRA:                   0.000
REMARK UNBOUND:                 0.000
REMARK  0 active torsions:
REMARK  status: ('A' for Active; 'I' for Inactive)
ROOT
ATOM      1  O   UNL d   1      17.431  37.745   3.272  0.00  0.00    -0.265 OA
ATOM      2  O   UNL d   1      18.234  38.259  -0.058  0.00  0.00    -0.246 OA
ATOM      3  N   UNL d   1      18.991  39.214   1.173  0.00  0.00    -0.286 N 
ATOM      4  N   UNL d   1      18.844  39.329   3.723  0.00  0.00    -0.338 N 
ATOM      5  N   UNL d   1      17.832  38.002   1.607  0.00  0.00    -0.269 N 
ATOM      6  N   UNL d   1      19.682  40.117   2.597  0.00  0.00    -0.223 NA
ATOM      7  C   UNL d   1      18.589  38.957   2.838  0.00  0.00     0.151 A 
ATOM      8  C   UNL d   1      19.109  39.446   2.138  0.00  0.00     0.167 A 
ATOM      9  C   UNL d   1      17.951  38.234   2.572  0.00  0.00     0.282 A 
ATOM     10  C   UNL d   1      18.352  38.491   0.907  0.00  0.00     0.332 A 
ATOM     11  C   UNL d   1      19.518  40.045   3.575  0.00  0.00     0.212 A 
ATOM     12  C   UNL d   1      19.511  39.703   0.473  0.00  0.00     0.163 C 
ATOM     13  C   UNL d   1      18.486  39.035   4.609  0.00  0.00     0.157 C 
ATOM     14  C   UNL d   1      17.193  37.279   1.342  0.00  0.00     0.164 C 
ENDROOT
TORSDOF 0
ENDMDL
MODEL 3
REMARK VINA RESULT:    -3.020      6.577      7.798
REMARK INTER + INTRA:          -3.020
REMARK INTER:                  -3.020
REMARK INTRA:                   0.000
REMARK UNBOUND:                 0.000
REMARK  0 active torsions:
REMARK  status: ('A' for Active; 'I' for Inactive)
ROOT
ATOM      1  O   UNL d   1      12.260  37.231   1.854  0.00  0.00    -0.265 OA
ATOM      2  O   UNL d   1      10.458  39.865   0.506  0.00  0.00    -0.246 OA
ATOM      3  N   UNL d   1      10.140  39.336   2.125  0.00  0.00    -0.286 N 
ATOM      4  N   UNL d   1      11.083  37.516   3.655  0.00  0.00    -0.338 N 
ATOM      5  N   UNL d   1      11.359  38.548   1.180  0.00  0.00    -0.269 N 
ATOM      6  N   UNL d   1       9.945  38.646   3.800  0.00  0.00    -0.223 NA
ATOM      7  C   UNL d   1      11.041  38.019   2.798  0.00  0.00     0.151 A 
ATOM      8  C   UNL d   1      10.335  38.721   2.889  0.00  0.00     0.167 A 
ATOM      9  C   UNL d   1      11.554  37.933   1.944  0.00  0.00     0.282 A 
ATOM     10  C   UNL d   1      10.652  39.249   1.270  0.00  0.00     0.332 A 
ATOM     11  C   UNL d   1      10.407  37.903   4.273  0.00  0.00     0.212 A 
ATOM     12  C   UNL d   1       9.433  40.038   2.215  0.00  0.00     0.163 C 
ATOM     13  C   UNL d   1      11.697  36.755   3.859  0.00  0.00     0.157 C 
ATOM     14  C   UNL d   1      11.872  38.461   0.325  0.00  0.00     0.164 C 
ENDROOT
TORSDOF 0
ENDMDL
MODEL 4
REMARK VINA RESULT:    -2.967      1.337      2.130
REMARK INTER + INTRA:          -2.967
REMARK INTER:                  -2.967
REMARK INTRA:                   0.000
REMARK UNBOUND:                 0.000
REMARK  0 active torsions:
REMARK  status: ('A' for Active; 'I' for Inactive)
ROOT
ATOM      1  O   UNL d   1      19.966  40.125   2.915  0.00  0.00    -0.265 OA
ATOM      2  O   UNL d   1      17.721  37.928   4.374  0.00  0.00    -0.246 OA
ATOM      3  N   UNL d   1      17.866  37.998   2.650  0.00  0.00    -0.286 N 
ATOM      4  N   UNL d   1      19.282  39.352   1.005  0.00  0.00    -0.338 N 
ATOM      5  N   UNL d   1      18.843  39.026   3.644  0.00  0.00    -0.269 N 
ATOM      6  N   UNL d   1      18.155  38.211   0.863  0.00  0.00    -0.223 NA
ATOM      7  C   UNL d   1      18.989  39.097   1.920  0.00  0.00     0.151 A 
ATOM      8  C   UNL d   1      18.289  38.388   1.832  0.00  0.00     0.167 A 
ATOM      9  C   UNL d   1      19.266  39.416   2.826  0.00  0.00     0.282 A 
ATOM     10  C   UNL d   1      18.143  38.317   3.556  0.00  0.00     0.332 A 
ATOM     11  C   UNL d   1      18.768  38.805   0.353  0.00  0.00     0.212 A 
ATOM     12  C   UNL d   1      17.167  37.290   2.562  0.00  0.00     0.163 C 
ATOM     13  C   UNL d   1      19.973  40.038   0.779  0.00  0.00     0.157 C 
ATOM     14  C   UNL d   1      19.120  39.345   4.551  0.00  0.00     0.164 C 
ENDROOT
TORSDOF 0
ENDMDL
MODEL 5
REMARK VINA RESULT:    -2.951      1.197      2.331
REMARK INTER + INTRA:          -2.951
REMARK INTER:                  -2.951
REMARK INTRA:                   0.000
REMARK UNBOUND:                 0.000
REMARK  0 active torsions:
REMARK  status: ('A' for Active; 'I' for Inactive)
ROOT
ATOM      1  O   UNL d   1      18.042  38.018   0.461  0.00  0.00    -0.265 OA
ATOM      2  O   UNL d   1      17.082  37.619   3.765  0.00  0.00    -0.246 OA
ATOM      3  N   UNL d   1      18.305  38.774   3.352  0.00  0.00    -0.286 N 
ATOM      4  N   UNL d   1      19.425  39.528   1.180  0.00  0.00    -0.338 N 
ATOM      5  N   UNL d   1      17.562  37.819   2.113  0.00  0.00    -0.269 N 
ATOM      6  N   UNL d   1      19.566  39.934   2.732  0.00  0.00    -0.223 NA
ATOM      7  C   UNL d   1      18.784  38.974   1.700  0.00  0.00     0.151 A 
ATOM      8  C   UNL d   1      18.872  39.226   2.664  0.00  0.00     0.167 A 
ATOM      9  C   UNL d   1      18.129  38.270   1.425  0.00  0.00     0.282 A 
ATOM     10  C   UNL d   1      17.649  38.071   3.077  0.00  0.00     0.332 A 
ATOM     11  C   UNL d   1      19.908  40.120   1.817  0.00  0.00     0.212 A 
ATOM     12  C   UNL d   1      18.392  39.026   4.316  0.00  0.00     0.163 C 
ATOM     13  C   UNL d   1      19.562  39.496   0.190  0.00  0.00     0.157 C 
ATOM     14  C   UNL d   1      16.907  37.115   1.838  0.00  0.00     0.164 C 
ENDROOT
TORSDOF 0
ENDMDL
