MODEL 1
REMARK VINA RESULT:    -7.733      0.000      0.000
REMARK INTER + INTRA:          -7.476
REMARK INTER:                  -9.325
REMARK INTRA:                   1.849
REMARK UNBOUND:                 1.839
REMARK  5 active torsions:
REMARK  status: ('A' for Active; 'I' for Inactive)
REMARK    1  A    between atoms: O_2  and  C_13 
REMARK    2  A    between atoms: O_3  and  C_19 
REMARK    3  A    between atoms: O_5  and  C_17 
REMARK    4  A    between atoms: O_6  and  C_21 
REMARK    5  A    between atoms: C_8  and  C_10 
ROOT
ATOM      1  O   UNL d   1      35.803  35.837  11.765  0.00  0.00    -0.309 OA
ATOM      2  O   UNL d   1      37.680  34.414  13.622  0.00  0.00    -0.287 OA
ATOM      3  C   UNL d   1      37.226  35.841  12.753  0.00  0.00     0.081 A 
ATOM      4  C   UNL d   1      35.632  34.885  12.015  0.00  0.00     0.090 A 
ATOM      5  C   UNL d   1      36.600  36.316  12.134  0.00  0.00     0.095 A 
ATOM      6  C   UNL d   1      37.054  34.889  13.003  0.00  0.00     0.190 A 
ATOM      7  C   UNL d   1      36.257  34.410  12.635  0.00  0.00     0.094 A 
ATOM      8  C   UNL d   1      38.059  36.327  13.144  0.00  0.00     0.085 A 
ATOM      9  C   UNL d   1      36.765  37.308  11.863  0.00  0.00     0.075 A 
ATOM     10  C   UNL d   1      37.593  37.813  12.244  0.00  0.00     0.071 A 
ATOM     11  C   UNL d   1      38.244  37.319  12.888  0.00  0.00     0.074 A 
ENDROOT
BRANCH   4  12
ATOM     12  C   UNL d   1      34.835  34.406  11.647  0.00  0.00     0.001 A 
ATOM     13  C   UNL d   1      33.992  34.353  12.182  0.00  0.00     0.054 A 
ATOM     14  C   UNL d   1      33.195  33.875  11.813  0.00  0.00     0.102 A 
ATOM     15  C   UNL d   1      33.241  33.449  10.909  0.00  0.00     0.099 A 
ATOM     16  C   UNL d   1      34.084  33.503  10.374  0.00  0.00     0.040 A 
ATOM     17  C   UNL d   1      34.881  33.981  10.743  0.00  0.00     0.017 A 
BRANCH  14  18
ATOM     18  O   UNL d   1      32.352  33.821  12.349  0.00  0.00    -0.353 OA
ATOM     19  C   UNL d   1      32.390  33.860  13.347  0.00  0.00     0.210 C 
ENDBRANCH  14  18
BRANCH  15  20
ATOM     20  O   UNL d   1      32.444  32.971  10.541  0.00  0.00    -0.358 OA
ATOM     21  H   UNL d   1      32.218  33.127   9.985  0.00  0.00     0.217 HD
ENDBRANCH  15  20
ENDBRANCH   4  12
BRANCH   8  22
ATOM     22  O   UNL d   1      38.679  35.842  13.763  0.00  0.00    -0.360 OA
ATOM     23  H   UNL d   1      39.128  36.152  14.056  0.00  0.00     0.217 HD
ENDBRANCH   8  22
BRANCH  10  24
ATOM     24  O   UNL d   1      37.760  38.766  11.990  0.00  0.00    -0.361 OA
ATOM     25  H   UNL d   1      37.386  39.049  11.585  0.00  0.00     0.217 HD
ENDBRANCH  10  24
TORSDOF 5
ENDMDL
MODEL 2
REMARK VINA RESULT:    -7.517      2.417      4.693
REMARK INTER + INTRA:          -7.216
REMARK INTER:                  -9.039
REMARK INTRA:                   1.823
REMARK UNBOUND:                 1.839
REMARK  5 active torsions:
REMARK  status: ('A' for Active; 'I' for Inactive)
REMARK    1  A    between atoms: O_2  and  C_13 
REMARK    2  A    between atoms: O_3  and  C_19 
REMARK    3  A    between atoms: O_5  and  C_17 
REMARK    4  A    between atoms: O_6  and  C_21 
REMARK    5  A    between atoms: C_8  and  C_10 
ROOT
ATOM      1  O   UNL d   1      38.370  35.770  13.530  0.00  0.00    -0.309 OA
ATOM      2  O   UNL d   1      36.003  34.710  12.021  0.00  0.00    -0.287 OA
ATOM      3  C   UNL d   1      37.072  36.016  12.409  0.00  0.00     0.081 A 
ATOM      4  C   UNL d   1      38.090  34.817  13.644  0.00  0.00     0.090 A 
ATOM      5  C   UNL d   1      37.861  36.370  12.912  0.00  0.00     0.095 A 
ATOM      6  C   UNL d   1      36.792  35.063  12.524  0.00  0.00     0.190 A 
ATOM      7  C   UNL d   1      37.301  34.464  13.142  0.00  0.00     0.094 A 
ATOM      8  C   UNL d   1      36.533  36.629  11.762  0.00  0.00     0.085 A 
ATOM      9  C   UNL d   1      38.165  37.360  12.803  0.00  0.00     0.075 A 
ATOM     10  C   UNL d   1      37.640  37.991  12.161  0.00  0.00     0.071 A 
ATOM     11  C   UNL d   1      36.819  37.623  11.637  0.00  0.00     0.074 A 
ENDROOT
BRANCH   4  12
ATOM     12  C   UNL d   1      38.598  34.218  14.262  0.00  0.00     0.001 A 
ATOM     13  C   UNL d   1      38.304  34.113  15.212  0.00  0.00     0.054 A 
ATOM     14  C   UNL d   1      38.813  33.513  15.830  0.00  0.00     0.102 A 
ATOM     15  C   UNL d   1      39.616  33.019  15.498  0.00  0.00     0.099 A 
ATOM     16  C   UNL d   1      39.910  33.123  14.548  0.00  0.00     0.040 A 
ATOM     17  C   UNL d   1      39.401  33.723  13.930  0.00  0.00     0.017 A 
BRANCH  14  18
ATOM     18  O   UNL d   1      38.519  33.408  16.780  0.00  0.00    -0.353 OA
ATOM     19  C   UNL d   1      37.649  33.800  17.080  0.00  0.00     0.210 C 
ENDBRANCH  14  18
BRANCH  15  20
ATOM     20  O   UNL d   1      40.125  32.419  16.116  0.00  0.00    -0.358 OA
ATOM     21  H   UNL d   1      40.147  31.809  16.007  0.00  0.00     0.217 HD
ENDBRANCH  15  20
ENDBRANCH   4  12
BRANCH   8  22
ATOM     22  O   UNL d   1      35.746  36.265  11.264  0.00  0.00    -0.360 OA
ATOM     23  H   UNL d   1      35.427  36.630  10.879  0.00  0.00     0.217 HD
ENDBRANCH   8  22
BRANCH  10  24
ATOM     24  O   UNL d   1      37.923  38.944  12.049  0.00  0.00    -0.361 OA
ATOM     25  H   UNL d   1      38.142  39.139  11.503  0.00  0.00     0.217 HD
ENDBRANCH  10  24
TORSDOF 5
ENDMDL
MODEL 3
REMARK VINA RESULT:    -7.479      1.034      2.416
REMARK INTER + INTRA:          -7.169
REMARK INTER:                  -9.015
REMARK INTRA:                   1.846
REMARK UNBOUND:                 1.839
REMARK  5 active torsions:
REMARK  status: ('A' for Active; 'I' for Inactive)
REMARK    1  A    between atoms: O_2  and  C_13 
REMARK    2  A    between atoms: O_3  and  C_19 
REMARK    3  A    between atoms: O_5  and  C_17 
REMARK    4  A    between atoms: O_6  and  C_21 
REMARK    5  A    between atoms: C_8  and  C_10 
ROOT
ATOM      1  O   UNL d   1      35.617  34.553  12.379  0.00  0.00    -0.309 OA
ATOM      2  O   UNL d   1      35.640  37.273  11.113  0.00  0.00    -0.287 OA
ATOM      3  C   UNL d   1      36.476  35.982  11.910  0.00  0.00     0.081 A 
ATOM      4  C   UNL d   1      34.773  34.937  12.003  0.00  0.00     0.090 A 
ATOM      5  C   UNL d   1      36.468  35.076  12.332  0.00  0.00     0.095 A 
ATOM      6  C   UNL d   1      35.632  36.366  11.535  0.00  0.00     0.190 A 
ATOM      7  C   UNL d   1      34.781  35.843  11.581  0.00  0.00     0.094 A 
ATOM      8  C   UNL d   1      37.355  36.538  11.855  0.00  0.00     0.085 A 
ATOM      9  C   UNL d   1      37.339  34.662  12.728  0.00  0.00     0.075 A 
ATOM     10  C   UNL d   1      38.229  35.201  12.683  0.00  0.00     0.071 A 
ATOM     11  C   UNL d   1      38.237  36.145  12.244  0.00  0.00     0.074 A 
ENDROOT
BRANCH   4  12
ATOM     12  C   UNL d   1      33.922  34.414  12.050  0.00  0.00     0.001 A 
ATOM     13  C   UNL d   1      33.564  33.968  11.230  0.00  0.00     0.054 A 
ATOM     14  C   UNL d   1      32.713  33.445  11.276  0.00  0.00     0.102 A 
ATOM     15  C   UNL d   1      32.220  33.369  12.143  0.00  0.00     0.099 A 
ATOM     16  C   UNL d   1      32.578  33.815  12.963  0.00  0.00     0.040 A 
ATOM     17  C   UNL d   1      33.429  34.338  12.916  0.00  0.00     0.017 A 
BRANCH  14  18
ATOM     18  O   UNL d   1      32.355  32.999  10.456  0.00  0.00    -0.353 OA
ATOM     19  C   UNL d   1      32.917  32.943   9.631  0.00  0.00     0.210 C 
ENDBRANCH  14  18
BRANCH  15  20
ATOM     20  O   UNL d   1      31.368  32.846  12.189  0.00  0.00    -0.358 OA
ATOM     21  H   UNL d   1      30.978  32.846  11.707  0.00  0.00     0.217 HD
ENDBRANCH  15  20
ENDBRANCH   4  12
BRANCH   8  22
ATOM     22  O   UNL d   1      37.350  37.444  11.431  0.00  0.00    -0.360 OA
ATOM     23  H   UNL d   1      36.992  37.553  10.937  0.00  0.00     0.217 HD
ENDBRANCH   8  22
BRANCH  10  24
ATOM     24  O   UNL d   1      39.071  34.813  13.060  0.00  0.00    -0.361 OA
ATOM     25  H   UNL d   1      39.548  34.686  12.685  0.00  0.00     0.217 HD
ENDBRANCH  10  24
TORSDOF 5
ENDMDL
MODEL 4
REMARK VINA RESULT:    -7.330      2.720      4.886
REMARK INTER + INTRA:          -6.990
REMARK INTER:                  -8.818
REMARK INTRA:                   1.828
REMARK UNBOUND:                 1.839
REMARK  5 active torsions:
REMARK  status: ('A' for Active; 'I' for Inactive)
REMARK    1  A    between atoms: O_2  and  C_13 
REMARK    2  A    between atoms: O_3  and  C_19 
REMARK    3  A    between atoms: O_5  and  C_17 
REMARK    4  A    between atoms: O_6  and  C_21 
REMARK    5  A    between atoms: C_8  and  C_10 
ROOT
ATOM      1  O   UNL d   1      37.615  34.813  14.694  0.00  0.00    -0.309 OA
ATOM      2  O   UNL d   1      40.024  33.177  13.972  0.00  0.00    -0.287 OA
ATOM      3  C   UNL d   1      38.830  33.658  15.131  0.00  0.00     0.081 A 
ATOM      4  C   UNL d   1      38.006  34.877  13.776  0.00  0.00     0.090 A 
ATOM      5  C   UNL d   1      38.026  34.203  15.371  0.00  0.00     0.095 A 
ATOM      6  C   UNL d   1      39.221  33.723  14.213  0.00  0.00     0.190 A 
ATOM      7  C   UNL d   1      38.810  34.332  13.535  0.00  0.00     0.094 A 
ATOM      8  C   UNL d   1      39.269  33.019  15.826  0.00  0.00     0.085 A 
ATOM      9  C   UNL d   1      37.607  34.147  16.323  0.00  0.00     0.075 A 
ATOM     10  C   UNL d   1      38.030  33.514  17.034  0.00  0.00     0.071 A 
ATOM     11  C   UNL d   1      38.866  32.946  16.784  0.00  0.00     0.074 A 
ENDROOT
BRANCH   4  12
ATOM     12  C   UNL d   1      37.595  35.487  13.099  0.00  0.00     0.001 A 
ATOM     13  C   UNL d   1      37.936  36.421  12.994  0.00  0.00     0.054 A 
ATOM     14  C   UNL d   1      37.524  37.031  12.317  0.00  0.00     0.102 A 
ATOM     15  C   UNL d   1      36.772  36.706  11.744  0.00  0.00     0.099 A 
ATOM     16  C   UNL d   1      36.431  35.772  11.848  0.00  0.00     0.040 A 
ATOM     17  C   UNL d   1      36.842  35.162  12.526  0.00  0.00     0.017 A 
BRANCH  14  18
ATOM     18  O   UNL d   1      37.865  37.965  12.212  0.00  0.00    -0.353 OA
ATOM     19  C   UNL d   1      38.457  38.363  12.913  0.00  0.00     0.210 C 
ENDBRANCH  14  18
BRANCH  15  20
ATOM     20  O   UNL d   1      36.360  37.316  11.067  0.00  0.00    -0.358 OA
ATOM     21  H   UNL d   1      36.068  37.080  10.573  0.00  0.00     0.217 HD
ENDBRANCH  15  20
ENDBRANCH   4  12
BRANCH   8  22
ATOM     22  O   UNL d   1      40.072  32.478  15.574  0.00  0.00    -0.360 OA
ATOM     23  H   UNL d   1      40.016  32.011  15.172  0.00  0.00     0.217 HD
ENDBRANCH   8  22
BRANCH  10  24
ATOM     24  O   UNL d   1      37.636  33.452  17.951  0.00  0.00    -0.361 OA
ATOM     25  H   UNL d   1      37.781  32.975  18.319  0.00  0.00     0.217 HD
ENDBRANCH  10  24
TORSDOF 5
ENDMDL
MODEL 5
REMARK VINA RESULT:    -7.260      2.269      4.930
REMARK INTER + INTRA:          -6.906
REMARK INTER:                  -8.796
REMARK INTRA:                   1.890
REMARK UNBOUND:                 1.839
REMARK  5 active torsions:
REMARK  status: ('A' for Active; 'I' for Inactive)
REMARK    1  A    between atoms: O_2  and  C_13 
REMARK    2  A    between atoms: O_3  and  C_19 
REMARK    3  A    between atoms: O_5  and  C_17 
REMARK    4  A    between atoms: O_6  and  C_21 
REMARK    5  A    between atoms: C_8  and  C_10 
ROOT
ATOM      1  O   UNL d   1      36.947  34.432  13.224  0.00  0.00    -0.309 OA
ATOM      2  O   UNL d   1      37.886  37.080  12.172  0.00  0.00    -0.287 OA
ATOM      3  C   UNL d   1      36.687  35.832  12.237  0.00  0.00     0.081 A 
ATOM      4  C   UNL d   1      37.833  34.798  13.509  0.00  0.00     0.090 A 
ATOM      5  C   UNL d   1      36.374  34.949  12.588  0.00  0.00     0.095 A 
ATOM      6  C   UNL d   1      37.573  36.198  12.522  0.00  0.00     0.190 A 
ATOM      7  C   UNL d   1      38.146  35.681  13.158  0.00  0.00     0.094 A 
ATOM      8  C   UNL d   1      36.101  36.382  11.575  0.00  0.00     0.085 A 
ATOM      9  C   UNL d   1      35.454  34.555  12.300  0.00  0.00     0.075 A 
ATOM     10  C   UNL d   1      34.851  35.088  11.638  0.00  0.00     0.071 A 
ATOM     11  C   UNL d   1      35.177  36.007  11.273  0.00  0.00     0.074 A 
ENDROOT
BRANCH   4  12
ATOM     12  C   UNL d   1      38.406  34.281  14.145  0.00  0.00     0.001 A 
ATOM     13  C   UNL d   1      38.101  34.133  15.085  0.00  0.00     0.054 A 
ATOM     14  C   UNL d   1      38.674  33.616  15.721  0.00  0.00     0.102 A 
ATOM     15  C   UNL d   1      39.552  33.247  15.417  0.00  0.00     0.099 A 
ATOM     16  C   UNL d   1      39.857  33.395  14.476  0.00  0.00     0.040 A 
ATOM     17  C   UNL d   1      39.284  33.912  13.840  0.00  0.00     0.017 A 
BRANCH  14  18
ATOM     18  O   UNL d   1      38.369  33.467  16.662  0.00  0.00    -0.353 OA
ATOM     19  C   UNL d   1      37.525  33.895  16.987  0.00  0.00     0.210 C 
ENDBRANCH  14  18
BRANCH  15  20
ATOM     20  O   UNL d   1      40.125  32.730  16.052  0.00  0.00    -0.358 OA
ATOM     21  H   UNL d   1      39.952  32.163  16.235  0.00  0.00     0.217 HD
ENDBRANCH  15  20
ENDBRANCH   4  12
BRANCH   8  22
ATOM     22  O   UNL d   1      36.424  37.263  11.230  0.00  0.00    -0.360 OA
ATOM     23  H   UNL d   1      36.069  37.595  10.846  0.00  0.00     0.217 HD
ENDBRANCH   8  22
BRANCH  10  24
ATOM     24  O   UNL d   1      33.966  34.719  11.355  0.00  0.00    -0.361 OA
ATOM     25  H   UNL d   1      33.534  35.096  11.118  0.00  0.00     0.217 HD
ENDBRANCH  10  24
TORSDOF 5
ENDMDL
