MODEL 1
REMARK VINA RESULT:    -7.851      0.000      0.000
REMARK INTER + INTRA:          -7.768
REMARK INTER:                  -8.779
REMARK INTRA:                   1.012
REMARK UNBOUND:                 1.001
REMARK  3 active torsions:
REMARK  status: ('A' for Active; 'I' for Inactive)
REMARK    1  A    between atoms: O_2  and  C_10 
REMARK    2  A    between atoms: O_4  and  C_13 
REMARK    3  A    between atoms: C_7  and  C_9 
ROOT
ATOM      1  O   UNL d   1      35.783  35.870  11.680  0.00  0.00    -0.309 OA
ATOM      2  O   UNL d   1      37.659  34.404  13.505  0.00  0.00    -0.287 OA
ATOM      3  C   UNL d   1      37.199  35.854  12.677  0.00  0.00     0.081 A 
ATOM      4  C   UNL d   1      36.574  36.343  12.069  0.00  0.00     0.095 A 
ATOM      5  C   UNL d   1      35.618  34.908  11.900  0.00  0.00     0.090 A 
ATOM      6  C   UNL d   1      37.034  34.893  12.897  0.00  0.00     0.190 A 
ATOM      7  C   UNL d   1      38.027  36.333  13.089  0.00  0.00     0.085 A 
ATOM      8  C   UNL d   1      36.243  34.420  12.508  0.00  0.00     0.094 A 
ATOM      9  C   UNL d   1      36.733  37.344  11.830  0.00  0.00     0.075 A 
ATOM     10  C   UNL d   1      37.555  37.843  12.231  0.00  0.00     0.071 A 
ATOM     11  C   UNL d   1      38.206  37.334  12.865  0.00  0.00     0.074 A 
ENDROOT
BRANCH   5  12
ATOM     12  C   UNL d   1      34.827  34.436  11.511  0.00  0.00    -0.002 A 
ATOM     13  C   UNL d   1      33.922  34.557  11.919  0.00  0.00     0.014 A 
ATOM     14  C   UNL d   1      33.131  34.084  11.530  0.00  0.00     0.001 A 
ATOM     15  C   UNL d   1      33.245  33.490  10.733  0.00  0.00     0.000 A 
ATOM     16  C   UNL d   1      34.150  33.369  10.326  0.00  0.00     0.001 A 
ATOM     17  C   UNL d   1      34.941  33.842  10.714  0.00  0.00     0.014 A 
ENDBRANCH   5  12
BRANCH   7  18
ATOM     18  O   UNL d   1      38.645  35.835  13.697  0.00  0.00    -0.360 OA
ATOM     19  H   UNL d   1      38.426  35.567  14.211  0.00  0.00     0.217 HD
ENDBRANCH   7  18
BRANCH  10  20
ATOM     20  O   UNL d   1      37.717  38.805  12.009  0.00  0.00    -0.361 OA
ATOM     21  H   UNL d   1      38.131  39.132  12.334  0.00  0.00     0.217 HD
ENDBRANCH  10  20
TORSDOF 3
ENDMDL
MODEL 2
REMARK VINA RESULT:    -7.551      1.092      2.379
REMARK INTER + INTRA:          -7.433
REMARK INTER:                  -8.460
REMARK INTRA:                   1.026
REMARK UNBOUND:                 1.001
REMARK  3 active torsions:
REMARK  status: ('A' for Active; 'I' for Inactive)
REMARK    1  A    between atoms: O_2  and  C_10 
REMARK    2  A    between atoms: O_4  and  C_13 
REMARK    3  A    between atoms: C_7  and  C_9 
ROOT
ATOM      1  O   UNL d   1      35.570  34.539  12.408  0.00  0.00    -0.309 OA
ATOM      2  O   UNL d   1      35.598  37.237  11.096  0.00  0.00    -0.287 OA
ATOM      3  C   UNL d   1      36.432  35.958  11.914  0.00  0.00     0.081 A 
ATOM      4  C   UNL d   1      36.423  35.059  12.352  0.00  0.00     0.095 A 
ATOM      5  C   UNL d   1      34.727  34.919  12.027  0.00  0.00     0.090 A 
ATOM      6  C   UNL d   1      35.589  36.338  11.533  0.00  0.00     0.190 A 
ATOM      7  C   UNL d   1      37.312  36.511  11.848  0.00  0.00     0.085 A 
ATOM      8  C   UNL d   1      34.736  35.818  11.590  0.00  0.00     0.094 A 
ATOM      9  C   UNL d   1      37.293  34.650  12.753  0.00  0.00     0.075 A 
ATOM     10  C   UNL d   1      38.185  35.186  12.698  0.00  0.00     0.071 A 
ATOM     11  C   UNL d   1      38.194  36.122  12.242  0.00  0.00     0.074 A 
ENDROOT
BRANCH   5  12
ATOM     12  C   UNL d   1      33.875  34.399  12.084  0.00  0.00    -0.002 A 
ATOM     13  C   UNL d   1      33.507  33.951  11.269  0.00  0.00     0.014 A 
ATOM     14  C   UNL d   1      32.655  33.431  11.326  0.00  0.00     0.001 A 
ATOM     15  C   UNL d   1      32.170  33.359  12.197  0.00  0.00     0.000 A 
ATOM     16  C   UNL d   1      32.537  33.808  13.012  0.00  0.00     0.001 A 
ATOM     17  C   UNL d   1      33.390  34.327  12.956  0.00  0.00     0.014 A 
ENDBRANCH   5  12
BRANCH   7  18
ATOM     18  O   UNL d   1      37.310  37.409  11.408  0.00  0.00    -0.360 OA
ATOM     19  H   UNL d   1      37.837  37.730  11.357  0.00  0.00     0.217 HD
ENDBRANCH   7  18
BRANCH  10  20
ATOM     20  O   UNL d   1      39.026  34.803  13.080  0.00  0.00    -0.361 OA
ATOM     21  H   UNL d   1      39.055  34.200  13.221  0.00  0.00     0.217 HD
ENDBRANCH  10  20
TORSDOF 3
ENDMDL
MODEL 3
REMARK VINA RESULT:    -7.537      2.020      4.016
REMARK INTER + INTRA:          -7.417
REMARK INTER:                  -8.418
REMARK INTRA:                   1.001
REMARK UNBOUND:                 1.001
REMARK  3 active torsions:
REMARK  status: ('A' for Active; 'I' for Inactive)
REMARK    1  A    between atoms: O_2  and  C_10 
REMARK    2  A    between atoms: O_4  and  C_13 
REMARK    3  A    between atoms: C_7  and  C_9 
ROOT
ATOM      1  O   UNL d   1      38.365  35.803  13.542  0.00  0.00    -0.309 OA
ATOM      2  O   UNL d   1      36.052  34.662  12.011  0.00  0.00    -0.287 OA
ATOM      3  C   UNL d   1      37.064  36.008  12.418  0.00  0.00     0.081 A 
ATOM      4  C   UNL d   1      37.835  36.388  12.928  0.00  0.00     0.095 A 
ATOM      5  C   UNL d   1      38.124  34.839  13.645  0.00  0.00     0.090 A 
ATOM      6  C   UNL d   1      36.823  35.043  12.521  0.00  0.00     0.190 A 
ATOM      7  C   UNL d   1      36.502  36.604  11.775  0.00  0.00     0.085 A 
ATOM      8  C   UNL d   1      37.353  34.458  13.135  0.00  0.00     0.094 A 
ATOM      9  C   UNL d   1      38.098  37.391  12.830  0.00  0.00     0.075 A 
ATOM     10  C   UNL d   1      37.550  38.006  12.193  0.00  0.00     0.071 A 
ATOM     11  C   UNL d   1      36.747  37.610  11.662  0.00  0.00     0.074 A 
ENDROOT
BRANCH   5  12
ATOM     12  C   UNL d   1      38.655  34.254  14.259  0.00  0.00    -0.002 A 
ATOM     13  C   UNL d   1      38.353  34.115  15.202  0.00  0.00     0.014 A 
ATOM     14  C   UNL d   1      38.883  33.530  15.816  0.00  0.00     0.001 A 
ATOM     15  C   UNL d   1      39.716  33.085  15.487  0.00  0.00     0.000 A 
ATOM     16  C   UNL d   1      40.018  33.224  14.544  0.00  0.00     0.001 A 
ATOM     17  C   UNL d   1      39.487  33.808  13.930  0.00  0.00     0.014 A 
ENDBRANCH   5  12
BRANCH   7  18
ATOM     18  O   UNL d   1      35.733  36.213  11.269  0.00  0.00    -0.360 OA
ATOM     19  H   UNL d   1      35.372  35.786  11.536  0.00  0.00     0.217 HD
ENDBRANCH   7  18
BRANCH  10  20
ATOM     20  O   UNL d   1      37.795  38.971  12.092  0.00  0.00    -0.361 OA
ATOM     21  H   UNL d   1      38.211  39.142  11.666  0.00  0.00     0.217 HD
ENDBRANCH  10  20
TORSDOF 3
ENDMDL
MODEL 4
REMARK VINA RESULT:    -7.431      1.954      4.424
REMARK INTER + INTRA:          -7.299
REMARK INTER:                  -8.379
REMARK INTRA:                   1.080
REMARK UNBOUND:                 1.001
REMARK  3 active torsions:
REMARK  status: ('A' for Active; 'I' for Inactive)
REMARK    1  A    between atoms: O_2  and  C_10 
REMARK    2  A    between atoms: O_4  and  C_13 
REMARK    3  A    between atoms: C_7  and  C_9 
ROOT
ATOM      1  O   UNL d   1      37.078  34.509  13.068  0.00  0.00    -0.309 OA
ATOM      2  O   UNL d   1      37.877  37.193  11.994  0.00  0.00    -0.287 OA
ATOM      3  C   UNL d   1      36.709  35.923  12.139  0.00  0.00     0.081 A 
ATOM      4  C   UNL d   1      36.442  35.028  12.497  0.00  0.00     0.095 A 
ATOM      5  C   UNL d   1      37.980  34.884  13.281  0.00  0.00     0.090 A 
ATOM      6  C   UNL d   1      37.611  36.298  12.352  0.00  0.00     0.190 A 
ATOM      7  C   UNL d   1      36.057  36.475  11.543  0.00  0.00     0.085 A 
ATOM      8  C   UNL d   1      38.247  35.779  12.923  0.00  0.00     0.094 A 
ATOM      9  C   UNL d   1      35.506  34.624  12.284  0.00  0.00     0.075 A 
ATOM     10  C   UNL d   1      34.839  35.159  11.690  0.00  0.00     0.071 A 
ATOM     11  C   UNL d   1      35.116  36.091  11.317  0.00  0.00     0.074 A 
ENDROOT
BRANCH   5  12
ATOM     12  C   UNL d   1      38.616  34.365  13.852  0.00  0.00    -0.002 A 
ATOM     13  C   UNL d   1      39.489  34.056  13.475  0.00  0.00     0.014 A 
ATOM     14  C   UNL d   1      40.125  33.537  14.046  0.00  0.00     0.001 A 
ATOM     15  C   UNL d   1      39.887  33.326  14.994  0.00  0.00     0.000 A 
ATOM     16  C   UNL d   1      39.014  33.634  15.371  0.00  0.00     0.001 A 
ATOM     17  C   UNL d   1      38.378  34.153  14.800  0.00  0.00     0.014 A 
ENDBRANCH   5  12
BRANCH   7  18
ATOM     18  O   UNL d   1      36.335  37.369  11.191  0.00  0.00    -0.360 OA
ATOM     19  H   UNL d   1      35.907  37.763  10.976  0.00  0.00     0.217 HD
ENDBRANCH   7  18
BRANCH  10  20
ATOM     20  O   UNL d   1      33.937  34.780  11.480  0.00  0.00    -0.361 OA
ATOM     21  H   UNL d   1      33.875  34.365  11.024  0.00  0.00     0.217 HD
ENDBRANCH  10  20
TORSDOF 3
ENDMDL
MODEL 5
REMARK VINA RESULT:    -6.913      1.508      1.821
REMARK INTER + INTRA:          -6.720
REMARK INTER:                  -7.719
REMARK INTRA:                   0.999
REMARK UNBOUND:                 1.001
REMARK  3 active torsions:
REMARK  status: ('A' for Active; 'I' for Inactive)
REMARK    1  A    between atoms: O_2  and  C_10 
REMARK    2  A    between atoms: O_4  and  C_13 
REMARK    3  A    between atoms: C_7  and  C_9 
ROOT
ATOM      1  O   UNL d   1      35.648  34.702  12.477  0.00  0.00    -0.309 OA
ATOM      2  O   UNL d   1      37.769  34.292  14.559  0.00  0.00    -0.287 OA
ATOM      3  C   UNL d   1      37.161  35.156  13.186  0.00  0.00     0.081 A 
ATOM      4  C   UNL d   1      36.455  35.292  12.492  0.00  0.00     0.095 A 
ATOM      5  C   UNL d   1      35.548  33.974  13.156  0.00  0.00     0.090 A 
ATOM      6  C   UNL d   1      37.062  34.428  13.865  0.00  0.00     0.190 A 
ATOM      7  C   UNL d   1      38.007  35.763  13.214  0.00  0.00     0.085 A 
ATOM      8  C   UNL d   1      36.255  33.838  13.850  0.00  0.00     0.094 A 
ATOM      9  C   UNL d   1      36.544  36.046  11.778  0.00  0.00     0.075 A 
ATOM     10  C   UNL d   1      37.382  36.665  11.787  0.00  0.00     0.071 A 
ATOM     11  C   UNL d   1      38.118  36.523  12.509  0.00  0.00     0.074 A 
ENDROOT
BRANCH   5  12
ATOM     12  C   UNL d   1      34.742  33.383  13.141  0.00  0.00    -0.002 A 
ATOM     13  C   UNL d   1      34.743  32.549  12.589  0.00  0.00     0.014 A 
ATOM     14  C   UNL d   1      33.936  31.958  12.574  0.00  0.00     0.001 A 
ATOM     15  C   UNL d   1      33.128  32.202  13.111  0.00  0.00     0.000 A 
ATOM     16  C   UNL d   1      33.127  33.036  13.662  0.00  0.00     0.001 A 
ATOM     17  C   UNL d   1      33.933  33.627  13.677  0.00  0.00     0.014 A 
ENDBRANCH   5  12
BRANCH   7  18
ATOM     18  O   UNL d   1      38.707  35.618  13.912  0.00  0.00    -0.360 OA
ATOM     19  H   UNL d   1      39.058  35.107  13.897  0.00  0.00     0.217 HD
ENDBRANCH   7  18
BRANCH  10  20
ATOM     20  O   UNL d   1      37.477  37.391  11.106  0.00  0.00    -0.361 OA
ATOM     21  H   UNL d   1      37.375  37.982  11.266  0.00  0.00     0.217 HD
ENDBRANCH  10  20
TORSDOF 3
ENDMDL
