MODEL 1
REMARK VINA RESULT:    -6.963      0.000      0.000
REMARK INTER + INTRA:          -3.940
REMARK INTER:                  -9.006
REMARK INTRA:                   5.066
REMARK UNBOUND:                 5.058
REMARK  6 active torsions:
REMARK  status: ('A' for Active; 'I' for Inactive)
REMARK    1  A    between atoms: O_2  and  C_15 
REMARK    2  A    between atoms: O_3  and  C_17 
REMARK    3  A    between atoms: O_4  and  C_11 
REMARK    4  A    between atoms: O_6  and  C_22 
REMARK    5  A    between atoms: O_7  and  C_20 
REMARK    6  A    between atoms: C_10  and  C_13 
ROOT
ATOM      1  O   UNL d   1      35.302  34.254  12.755  0.00  0.00    -0.309 OA
ATOM      2  O   UNL d   1      34.852  36.786  11.080  0.00  0.00    -0.287 OA
ATOM      3  C   UNL d   1      35.930  35.745  12.021  0.00  0.00     0.084 A 
ATOM      4  C   UNL d   1      36.080  34.921  12.568  0.00  0.00     0.096 A 
ATOM      5  C   UNL d   1      34.355  34.449  12.368  0.00  0.00     0.090 A 
ATOM      6  C   UNL d   1      36.687  36.376  11.850  0.00  0.00     0.119 A 
ATOM      7  C   UNL d   1      34.991  35.959  11.625  0.00  0.00     0.190 A 
ATOM      8  C   UNL d   1      36.987  34.728  12.942  0.00  0.00     0.078 A 
ATOM      9  C   UNL d   1      37.593  36.183  12.224  0.00  0.00     0.136 A 
ATOM     10  C   UNL d   1      34.198  35.307  11.799  0.00  0.00     0.094 A 
ATOM     11  C   UNL d   1      37.744  35.358  12.771  0.00  0.00     0.107 A 
ENDROOT
BRANCH   5  12
ATOM     12  C   UNL d   1      33.600  33.816  12.542  0.00  0.00     0.001 A 
ATOM     13  C   UNL d   1      32.888  34.056  13.202  0.00  0.00     0.053 A 
ATOM     14  C   UNL d   1      32.133  33.424  13.376  0.00  0.00     0.099 A 
ATOM     15  C   UNL d   1      32.091  32.551  12.890  0.00  0.00     0.101 A 
ATOM     16  C   UNL d   1      32.803  32.310  12.230  0.00  0.00     0.040 A 
ATOM     17  C   UNL d   1      33.557  32.943  12.056  0.00  0.00     0.017 A 
BRANCH  14  18
ATOM     18  O   UNL d   1      31.421  33.663  14.035  0.00  0.00    -0.358 OA
ATOM     19  H   UNL d   1      30.825  33.649  13.867  0.00  0.00     0.217 HD
ENDBRANCH  14  18
BRANCH  15  20
ATOM     20  O   UNL d   1      31.337  31.918  13.063  0.00  0.00    -0.353 OA
ATOM     21  C   UNL d   1      31.314  31.029  12.607  0.00  0.00     0.210 C 
ENDBRANCH  15  20
ENDBRANCH   5  12
BRANCH   6  22
ATOM     22  O   UNL d   1      36.536  37.200  11.304  0.00  0.00    -0.357 OA
ATOM     23  H   UNL d   1      36.627  37.186  10.690  0.00  0.00     0.218 HD
ENDBRANCH   6  22
BRANCH  11  24
ATOM     24  O   UNL d   1      38.650  35.165  13.145  0.00  0.00    -0.353 OA
ATOM     25  C   UNL d   1      38.797  34.350  13.705  0.00  0.00     0.210 C 
ENDBRANCH  11  24
BRANCH   9  26
ATOM     26  O   UNL d   1      38.350  36.813  12.053  0.00  0.00    -0.351 OA
ATOM     27  C   UNL d   1      38.366  37.708  12.499  0.00  0.00     0.210 C 
ENDBRANCH   9  26
TORSDOF 6
ENDMDL
MODEL 2
REMARK VINA RESULT:    -6.856      1.950      2.853
REMARK INTER + INTRA:          -3.802
REMARK INTER:                  -8.810
REMARK INTRA:                   5.008
REMARK UNBOUND:                 5.058
REMARK  6 active torsions:
REMARK  status: ('A' for Active; 'I' for Inactive)
REMARK    1  A    between atoms: O_2  and  C_15 
REMARK    2  A    between atoms: O_3  and  C_17 
REMARK    3  A    between atoms: O_4  and  C_11 
REMARK    4  A    between atoms: O_6  and  C_22 
REMARK    5  A    between atoms: O_7  and  C_20 
REMARK    6  A    between atoms: C_10  and  C_13 
ROOT
ATOM      1  O   UNL d   1      35.807  33.557  13.052  0.00  0.00    -0.309 OA
ATOM      2  O   UNL d   1      37.534  36.012  12.411  0.00  0.00    -0.287 OA
ATOM      3  C   UNL d   1      37.189  34.607  13.430  0.00  0.00     0.084 A 
ATOM      4  C   UNL d   1      36.629  33.807  13.642  0.00  0.00     0.096 A 
ATOM      5  C   UNL d   1      35.567  34.150  12.230  0.00  0.00     0.090 A 
ATOM      6  C   UNL d   1      37.975  34.834  14.006  0.00  0.00     0.119 A 
ATOM      7  C   UNL d   1      36.967  35.214  12.614  0.00  0.00     0.190 A 
ATOM      8  C   UNL d   1      36.854  33.233  14.430  0.00  0.00     0.078 A 
ATOM      9  C   UNL d   1      38.200  34.261  14.794  0.00  0.00     0.136 A 
ATOM     10  C   UNL d   1      36.151  34.984  12.009  0.00  0.00     0.094 A 
ATOM     11  C   UNL d   1      37.639  33.460  15.006  0.00  0.00     0.107 A 
ENDROOT
BRANCH   5  12
ATOM     12  C   UNL d   1      34.781  33.920  11.656  0.00  0.00     0.001 A 
ATOM     13  C   UNL d   1      33.900  34.367  11.814  0.00  0.00     0.053 A 
ATOM     14  C   UNL d   1      33.113  34.137  11.240  0.00  0.00     0.099 A 
ATOM     15  C   UNL d   1      33.208  33.461  10.510  0.00  0.00     0.101 A 
ATOM     16  C   UNL d   1      34.089  33.015  10.352  0.00  0.00     0.040 A 
ATOM     17  C   UNL d   1      34.875  33.244  10.926  0.00  0.00     0.017 A 
BRANCH  14  18
ATOM     18  O   UNL d   1      32.232  34.583  11.397  0.00  0.00    -0.358 OA
ATOM     19  H   UNL d   1      32.077  35.088  11.073  0.00  0.00     0.217 HD
ENDBRANCH  14  18
BRANCH  15  20
ATOM     20  O   UNL d   1      32.422  33.231   9.936  0.00  0.00    -0.353 OA
ATOM     21  C   UNL d   1      32.546  32.669   9.119  0.00  0.00     0.210 C 
ENDBRANCH  15  20
ENDBRANCH   5  12
BRANCH   6  22
ATOM     22  O   UNL d   1      38.535  35.635  13.794  0.00  0.00    -0.357 OA
ATOM     23  H   UNL d   1      38.381  36.190  14.022  0.00  0.00     0.218 HD
ENDBRANCH   6  22
BRANCH  11  24
ATOM     24  O   UNL d   1      37.864  32.887  15.793  0.00  0.00    -0.353 OA
ATOM     25  C   UNL d   1      37.216  32.193  16.108  0.00  0.00     0.210 C 
ENDBRANCH  11  24
BRANCH   9  26
ATOM     26  O   UNL d   1      38.985  34.488  15.369  0.00  0.00    -0.351 OA
ATOM     27  C   UNL d   1      39.902  34.188  15.105  0.00  0.00     0.210 C 
ENDBRANCH   9  26
TORSDOF 6
ENDMDL
MODEL 3
REMARK VINA RESULT:    -6.655      1.194      5.793
REMARK INTER + INTRA:          -3.543
REMARK INTER:                  -8.734
REMARK INTRA:                   5.191
REMARK UNBOUND:                 5.058
REMARK  6 active torsions:
REMARK  status: ('A' for Active; 'I' for Inactive)
REMARK    1  A    between atoms: O_2  and  C_15 
REMARK    2  A    between atoms: O_3  and  C_17 
REMARK    3  A    between atoms: O_4  and  C_11 
REMARK    4  A    between atoms: O_6  and  C_22 
REMARK    5  A    between atoms: O_7  and  C_20 
REMARK    6  A    between atoms: C_10  and  C_13 
ROOT
ATOM      1  O   UNL d   1      34.746  34.715  12.804  0.00  0.00    -0.309 OA
ATOM      2  O   UNL d   1      33.833  33.509  10.134  0.00  0.00    -0.287 OA
ATOM      3  C   UNL d   1      33.644  33.667  11.886  0.00  0.00     0.084 A 
ATOM      4  C   UNL d   1      33.939  34.058  12.758  0.00  0.00     0.096 A 
ATOM      5  C   UNL d   1      35.252  34.969  11.930  0.00  0.00     0.090 A 
ATOM      6  C   UNL d   1      32.868  33.037  11.857  0.00  0.00     0.119 A 
ATOM      7  C   UNL d   1      34.136  33.906  11.000  0.00  0.00     0.190 A 
ATOM      8  C   UNL d   1      33.457  33.819  13.601  0.00  0.00     0.078 A 
ATOM      9  C   UNL d   1      32.386  32.798  12.700  0.00  0.00     0.136 A 
ATOM     10  C   UNL d   1      34.945  34.561  11.021  0.00  0.00     0.094 A 
ATOM     11  C   UNL d   1      32.681  33.189  13.572  0.00  0.00     0.107 A 
ENDROOT
BRANCH   5  12
ATOM     12  C   UNL d   1      36.028  35.599  11.962  0.00  0.00     0.001 A 
ATOM     13  C   UNL d   1      36.910  35.288  12.316  0.00  0.00     0.053 A 
ATOM     14  C   UNL d   1      37.686  35.917  12.349  0.00  0.00     0.099 A 
ATOM     15  C   UNL d   1      37.580  36.858  12.027  0.00  0.00     0.101 A 
ATOM     16  C   UNL d   1      36.698  37.169  11.672  0.00  0.00     0.040 A 
ATOM     17  C   UNL d   1      35.922  36.539  11.640  0.00  0.00     0.017 A 
BRANCH  14  18
ATOM     18  O   UNL d   1      38.568  35.607  12.703  0.00  0.00    -0.358 OA
ATOM     19  H   UNL d   1      38.593  35.143  13.113  0.00  0.00     0.217 HD
ENDBRANCH  14  18
BRANCH  15  20
ATOM     20  O   UNL d   1      38.355  37.488  12.059  0.00  0.00    -0.353 OA
ATOM     21  C   UNL d   1      38.240  38.405  12.441  0.00  0.00     0.210 C 
ENDBRANCH  15  20
ENDBRANCH   5  12
BRANCH   6  22
ATOM     22  O   UNL d   1      32.573  32.646  10.985  0.00  0.00    -0.357 OA
ATOM     23  H   UNL d   1      32.987  32.547  10.534  0.00  0.00     0.218 HD
ENDBRANCH   6  22
BRANCH  11  24
ATOM     24  O   UNL d   1      32.200  32.950  14.416  0.00  0.00    -0.353 OA
ATOM     25  C   UNL d   1      32.665  33.031  15.297  0.00  0.00     0.210 C 
ENDBRANCH  11  24
BRANCH   9  26
ATOM     26  O   UNL d   1      31.610  32.168  12.672  0.00  0.00    -0.351 OA
ATOM     27  C   UNL d   1      30.713  32.494  12.375  0.00  0.00     0.210 C 
ENDBRANCH   9  26
TORSDOF 6
ENDMDL
MODEL 4
REMARK VINA RESULT:    -6.484      1.826      5.930
REMARK INTER + INTRA:          -3.321
REMARK INTER:                  -8.733
REMARK INTRA:                   5.412
REMARK UNBOUND:                 5.058
REMARK  6 active torsions:
REMARK  status: ('A' for Active; 'I' for Inactive)
REMARK    1  A    between atoms: O_2  and  C_15 
REMARK    2  A    between atoms: O_3  and  C_17 
REMARK    3  A    between atoms: O_4  and  C_11 
REMARK    4  A    between atoms: O_6  and  C_22 
REMARK    5  A    between atoms: O_7  and  C_20 
REMARK    6  A    between atoms: C_10  and  C_13 
ROOT
ATOM      1  O   UNL d   1      35.327  34.292  11.271  0.00  0.00    -0.309 OA
ATOM      2  O   UNL d   1      35.197  32.524  13.777  0.00  0.00    -0.287 OA
ATOM      3  C   UNL d   1      34.713  32.850  12.106  0.00  0.00     0.084 A 
ATOM      4  C   UNL d   1      34.753  33.423  11.288  0.00  0.00     0.096 A 
ATOM      5  C   UNL d   1      35.868  34.567  12.119  0.00  0.00     0.090 A 
ATOM      6  C   UNL d   1      34.157  32.018  12.107  0.00  0.00     0.119 A 
ATOM      7  C   UNL d   1      35.245  33.105  12.964  0.00  0.00     0.190 A 
ATOM      8  C   UNL d   1      34.237  33.166  10.471  0.00  0.00     0.078 A 
ATOM      9  C   UNL d   1      33.641  31.761  11.290  0.00  0.00     0.136 A 
ATOM     10  C   UNL d   1      35.826  33.969  12.971  0.00  0.00     0.094 A 
ATOM     11  C   UNL d   1      33.681  32.334  10.472  0.00  0.00     0.107 A 
ENDROOT
BRANCH   5  12
ATOM     12  C   UNL d   1      36.422  35.399  12.114  0.00  0.00     0.001 A 
ATOM     13  C   UNL d   1      36.035  36.256  11.774  0.00  0.00     0.053 A 
ATOM     14  C   UNL d   1      36.589  37.088  11.769  0.00  0.00     0.099 A 
ATOM     15  C   UNL d   1      37.531  37.063  12.104  0.00  0.00     0.101 A 
ATOM     16  C   UNL d   1      37.919  36.206  12.445  0.00  0.00     0.040 A 
ATOM     17  C   UNL d   1      37.364  35.374  12.449  0.00  0.00     0.017 A 
BRANCH  14  18
ATOM     18  O   UNL d   1      36.203  37.946  11.429  0.00  0.00    -0.358 OA
ATOM     19  H   UNL d   1      35.590  38.029  11.424  0.00  0.00     0.217 HD
ENDBRANCH  14  18
BRANCH  15  20
ATOM     20  O   UNL d   1      38.086  37.895  12.100  0.00  0.00    -0.353 OA
ATOM     21  C   UNL d   1      38.507  38.220  12.946  0.00  0.00     0.210 C 
ENDBRANCH  15  20
ENDBRANCH   5  12
BRANCH   6  22
ATOM     22  O   UNL d   1      34.117  31.445  12.925  0.00  0.00    -0.357 OA
ATOM     23  H   UNL d   1      33.599  31.131  13.059  0.00  0.00     0.218 HD
ENDBRANCH   6  22
BRANCH  11  24
ATOM     24  O   UNL d   1      33.165  32.077   9.655  0.00  0.00    -0.353 OA
ATOM     25  C   UNL d   1      32.949  32.765   8.963  0.00  0.00     0.210 C 
ENDBRANCH  11  24
BRANCH   9  26
ATOM     26  O   UNL d   1      33.085  30.930  11.291  0.00  0.00    -0.351 OA
ATOM     27  C   UNL d   1      33.518  30.038  11.155  0.00  0.00     0.210 C 
ENDBRANCH   9  26
TORSDOF 6
ENDMDL
MODEL 5
REMARK VINA RESULT:    -6.479      1.746      2.708
REMARK INTER + INTRA:          -3.315
REMARK INTER:                  -8.377
REMARK INTRA:                   5.062
REMARK UNBOUND:                 5.058
REMARK  6 active torsions:
REMARK  status: ('A' for Active; 'I' for Inactive)
REMARK    1  A    between atoms: O_2  and  C_15 
REMARK    2  A    between atoms: O_3  and  C_17 
REMARK    3  A    between atoms: O_4  and  C_11 
REMARK    4  A    between atoms: O_6  and  C_22 
REMARK    5  A    between atoms: O_7  and  C_20 
REMARK    6  A    between atoms: C_10  and  C_13 
ROOT
ATOM      1  O   UNL d   1      35.335  34.464  11.773  0.00  0.00    -0.309 OA
ATOM      2  O   UNL d   1      35.886  32.706  14.228  0.00  0.00    -0.287 OA
ATOM      3  C   UNL d   1      36.324  34.076  13.198  0.00  0.00     0.084 A 
ATOM      4  C   UNL d   1      36.147  34.651  12.399  0.00  0.00     0.096 A 
ATOM      5  C   UNL d   1      34.698  33.666  11.984  0.00  0.00     0.090 A 
ATOM      6  C   UNL d   1      37.107  34.268  13.788  0.00  0.00     0.119 A 
ATOM      7  C   UNL d   1      35.700  33.274  13.427  0.00  0.00     0.190 A 
ATOM      8  C   UNL d   1      36.754  35.418  12.190  0.00  0.00     0.078 A 
ATOM      9  C   UNL d   1      37.714  35.035  13.580  0.00  0.00     0.136 A 
ATOM     10  C   UNL d   1      34.882  33.067  12.816  0.00  0.00     0.094 A 
ATOM     11  C   UNL d   1      37.538  35.610  12.781  0.00  0.00     0.107 A 
ENDROOT
BRANCH   5  12
ATOM     12  C   UNL d   1      33.916  33.477  11.391  0.00  0.00     0.001 A 
ATOM     13  C   UNL d   1      33.030  33.899  11.583  0.00  0.00     0.053 A 
ATOM     14  C   UNL d   1      32.246  33.710  10.991  0.00  0.00     0.099 A 
ATOM     15  C   UNL d   1      32.350  33.099  10.205  0.00  0.00     0.101 A 
ATOM     16  C   UNL d   1      33.236  32.678  10.013  0.00  0.00     0.040 A 
ATOM     17  C   UNL d   1      34.019  32.867  10.606  0.00  0.00     0.017 A 
BRANCH  14  18
ATOM     18  O   UNL d   1      31.360  34.131  11.182  0.00  0.00    -0.358 OA
ATOM     19  H   UNL d   1      30.858  33.958  10.862  0.00  0.00     0.217 HD
ENDBRANCH  14  18
BRANCH  15  20
ATOM     20  O   UNL d   1      31.568  32.910   9.612  0.00  0.00    -0.353 OA
ATOM     21  C   UNL d   1      31.631  32.200   8.912  0.00  0.00     0.210 C 
ENDBRANCH  15  20
ENDBRANCH   5  12
BRANCH   6  22
ATOM     22  O   UNL d   1      37.284  33.693  14.587  0.00  0.00    -0.357 OA
ATOM     23  H   UNL d   1      37.864  33.616  14.792  0.00  0.00     0.218 HD
ENDBRANCH   6  22
BRANCH  11  24
ATOM     24  O   UNL d   1      38.145  36.377  12.573  0.00  0.00    -0.353 OA
ATOM     25  C   UNL d   1      37.809  37.148  12.033  0.00  0.00     0.210 C 
ENDBRANCH  11  24
BRANCH   9  26
ATOM     26  O   UNL d   1      38.498  35.227  14.171  0.00  0.00    -0.351 OA
ATOM     27  C   UNL d   1      39.276  34.600  14.189  0.00  0.00     0.210 C 
ENDBRANCH   9  26
TORSDOF 6
ENDMDL
