MODEL 1
REMARK VINA RESULT:    -7.918      0.000      0.000
REMARK INTER + INTRA:           1.729
REMARK INTER:                 -10.694
REMARK INTRA:                  12.423
REMARK UNBOUND:                12.424
REMARK  9 active torsions:
REMARK  status: ('A' for Active; 'I' for Inactive)
REMARK    1  A    between atoms: C_15  and  O_2 
REMARK    2  A    between atoms: O_2  and  C_17 
REMARK    3  A    between atoms: C_11  and  O_3 
REMARK    4  A    between atoms: C_12  and  O_4 
REMARK    5  A    between atoms: C_13  and  O_5 
REMARK    6  A    between atoms: O_8  and  C_23 
REMARK    7  A    between atoms: O_9  and  C_28 
REMARK    8  A    between atoms: O_10  and  C_31 
REMARK    9  A    between atoms: C_18  and  C_22 
ROOT
ATOM      1  O   UNL d   1      -5.685  18.172  33.625  0.00  0.00    -0.306 OA
ATOM      2  O   UNL d   1      -4.119  20.576  34.502  0.00  0.00    -0.284 OA
ATOM      3  C   UNL d   1      -5.640  19.781  34.263  0.00  0.00     0.157 A 
ATOM      4  C   UNL d   1      -6.162  18.980  33.971  0.00  0.00     0.123 A 
ATOM      5  C   UNL d   1      -4.641  19.774  34.209  0.00  0.00     0.223 A 
ATOM      6  C   UNL d   1      -4.165  18.966  33.864  0.00  0.00     0.084 A 
ATOM      7  C   UNL d   1      -4.687  18.165  33.571  0.00  0.00     0.096 A 
ATOM      8  C   UNL d   1      -3.124  18.973  33.813  0.00  0.00     0.085 A 
ATOM      9  C   UNL d   1      -4.205  17.315  33.209  0.00  0.00     0.075 A 
ATOM     10  C   UNL d   1      -2.621  18.135  33.454  0.00  0.00     0.074 A 
ATOM     11  C   UNL d   1      -3.165  17.300  33.150  0.00  0.00     0.071 A 
ENDROOT
BRANCH   3  12
ATOM     12  O   UNL d   1      -6.116  20.590  34.609  0.00  0.00    -0.311 OA
BRANCH  12  13
ATOM     13  C   UNL d   1      -6.119  21.435  34.075  0.00  0.00     0.298 A 
ATOM     14  O   UNL d   1      -6.035  21.398  33.079  0.00  0.00    -0.351 OA
ATOM     15  C   UNL d   1      -6.038  22.243  32.545  0.00  0.00     0.152 A 
ATOM     16  C   UNL d   1      -6.124  23.126  33.007  0.00  0.00     0.178 A 
ATOM     17  C   UNL d   1      -5.954  22.206  31.550  0.00  0.00     0.042 C 
ATOM     18  C   UNL d   1      -6.208  23.163  34.003  0.00  0.00     0.183 A 
ATOM     19  C   UNL d   1      -6.205  22.318  34.537  0.00  0.00     0.205 A 
BRANCH  16  20
ATOM     20  O   UNL d   1      -6.127  23.972  32.473  0.00  0.00    -0.390 OA
ATOM     21  H   UNL d   1      -6.096  23.948  31.854  0.00  0.00     0.210 HD
ENDBRANCH  16  20
BRANCH  18  22
ATOM     22  O   UNL d   1      -6.294  24.046  34.465  0.00  0.00    -0.390 OA
ATOM     23  H   UNL d   1      -6.402  24.068  35.075  0.00  0.00     0.210 HD
ENDBRANCH  18  22
BRANCH  19  24
ATOM     24  O   UNL d   1      -6.289  22.355  35.533  0.00  0.00    -0.388 OA
ATOM     25  H   UNL d   1      -6.393  21.836  35.855  0.00  0.00     0.210 HD
ENDBRANCH  19  24
ENDBRANCH  12  13
ENDBRANCH   3  12
BRANCH   4  26
ATOM     26  C   UNL d   1      -7.160  18.987  34.025  0.00  0.00     0.001 A 
ATOM     27  C   UNL d   1      -7.614  18.875  34.909  0.00  0.00     0.017 A 
ATOM     28  C   UNL d   1      -8.613  18.882  34.963  0.00  0.00     0.037 A 
ATOM     29  C   UNL d   1      -9.157  19.001  34.133  0.00  0.00     0.065 A 
ATOM     30  C   UNL d   1      -8.703  19.114  33.249  0.00  0.00     0.037 A 
ATOM     31  C   UNL d   1      -7.705  19.107  33.195  0.00  0.00     0.017 A 
BRANCH  29  32
ATOM     32  O   UNL d   1     -10.156  19.008  34.186  0.00  0.00    -0.361 OA
ATOM     33  H   UNL d   1     -10.445  19.440  34.525  0.00  0.00     0.217 HD
ENDBRANCH  29  32
ENDBRANCH   4  26
BRANCH   8  34
ATOM     34  O   UNL d   1      -2.612  19.780  34.108  0.00  0.00    -0.360 OA
ATOM     35  H   UNL d   1      -2.828  20.348  33.982  0.00  0.00     0.217 HD
ENDBRANCH   8  34
BRANCH  11  36
ATOM     36  O   UNL d   1      -2.692  16.490  32.803  0.00  0.00    -0.361 OA
ATOM     37  H   UNL d   1      -2.318  16.166  33.177  0.00  0.00     0.217 HD
ENDBRANCH  11  36
TORSDOF 9
ENDMDL
MODEL 2
REMARK VINA RESULT:    -7.632     17.155     19.179
REMARK INTER + INTRA:           2.116
REMARK INTER:                 -10.362
REMARK INTRA:                  12.477
REMARK UNBOUND:                12.424
REMARK  9 active torsions:
REMARK  status: ('A' for Active; 'I' for Inactive)
REMARK    1  A    between atoms: C_15  and  O_2 
REMARK    2  A    between atoms: O_2  and  C_17 
REMARK    3  A    between atoms: C_11  and  O_3 
REMARK    4  A    between atoms: C_12  and  O_4 
REMARK    5  A    between atoms: C_13  and  O_5 
REMARK    6  A    between atoms: O_8  and  C_23 
REMARK    7  A    between atoms: O_9  and  C_28 
REMARK    8  A    between atoms: O_10  and  C_31 
REMARK    9  A    between atoms: C_18  and  C_22 
ROOT
ATOM      1  O   UNL d   1       6.799  30.918  25.512  0.00  0.00    -0.306 OA
ATOM      2  O   UNL d   1       8.321  33.075  26.936  0.00  0.00    -0.284 OA
ATOM      3  C   UNL d   1       6.845  32.212  26.662  0.00  0.00     0.157 A 
ATOM      4  C   UNL d   1       6.338  31.493  26.188  0.00  0.00     0.123 A 
ATOM      5  C   UNL d   1       7.814  32.356  26.461  0.00  0.00     0.223 A 
ATOM      6  C   UNL d   1       8.276  31.781  25.786  0.00  0.00     0.084 A 
ATOM      7  C   UNL d   1       7.768  31.062  25.312  0.00  0.00     0.096 A 
ATOM      8  C   UNL d   1       9.286  31.943  25.588  0.00  0.00     0.085 A 
ATOM      9  C   UNL d   1       8.236  30.454  24.605  0.00  0.00     0.075 A 
ATOM     10  C   UNL d   1       9.773  31.347  24.885  0.00  0.00     0.074 A 
ATOM     11  C   UNL d   1       9.245  30.598  24.391  0.00  0.00     0.071 A 
ENDROOT
BRANCH   3  12
ATOM     12  O   UNL d   1       6.384  32.787  27.337  0.00  0.00    -0.311 OA
BRANCH  12  13
ATOM     13  C   UNL d   1       6.266  33.765  27.164  0.00  0.00     0.298 A 
ATOM     14  O   UNL d   1       6.127  34.094  26.230  0.00  0.00    -0.351 OA
ATOM     15  C   UNL d   1       6.009  35.072  26.058  0.00  0.00     0.152 A 
ATOM     16  C   UNL d   1       6.031  35.721  26.818  0.00  0.00     0.178 A 
ATOM     17  C   UNL d   1       5.870  35.402  25.124  0.00  0.00     0.042 C 
ATOM     18  C   UNL d   1       6.170  35.391  27.752  0.00  0.00     0.183 A 
ATOM     19  C   UNL d   1       6.287  34.414  27.925  0.00  0.00     0.205 A 
BRANCH  16  20
ATOM     20  O   UNL d   1       5.913  36.699  26.645  0.00  0.00    -0.390 OA
ATOM     21  H   UNL d   1       6.349  37.014  26.337  0.00  0.00     0.210 HD
ENDBRANCH  16  20
BRANCH  18  22
ATOM     22  O   UNL d   1       6.191  36.040  28.513  0.00  0.00    -0.390 OA
ATOM     23  H   UNL d   1       6.669  36.431  28.574  0.00  0.00     0.210 HD
ENDBRANCH  18  22
BRANCH  19  24
ATOM     24  O   UNL d   1       6.427  34.084  28.859  0.00  0.00    -0.388 OA
ATOM     25  H   UNL d   1       6.251  34.434  29.340  0.00  0.00     0.210 HD
ENDBRANCH  19  24
ENDBRANCH  12  13
ENDBRANCH   3  12
BRANCH   4  26
ATOM     26  C   UNL d   1       5.369  31.349  26.388  0.00  0.00     0.001 A 
ATOM     27  C   UNL d   1       5.094  30.946  27.261  0.00  0.00     0.017 A 
ATOM     28  C   UNL d   1       4.125  30.802  27.462  0.00  0.00     0.037 A 
ATOM     29  C   UNL d   1       3.431  31.061  26.790  0.00  0.00     0.065 A 
ATOM     30  C   UNL d   1       3.706  31.463  25.917  0.00  0.00     0.037 A 
ATOM     31  C   UNL d   1       4.675  31.607  25.716  0.00  0.00     0.017 A 
BRANCH  29  32
ATOM     32  O   UNL d   1       2.462  30.917  26.990  0.00  0.00    -0.361 OA
ATOM     33  H   UNL d   1       2.238  30.340  27.041  0.00  0.00     0.217 HD
ENDBRANCH  29  32
ENDBRANCH   4  26
BRANCH   8  34
ATOM     34  O   UNL d   1       9.783  32.665  26.068  0.00  0.00    -0.360 OA
ATOM     35  H   UNL d   1      10.018  33.144  25.751  0.00  0.00     0.217 HD
ENDBRANCH   8  34
BRANCH  11  36
ATOM     36  O   UNL d   1       9.703  30.021  23.715  0.00  0.00    -0.361 OA
ATOM     37  H   UNL d   1       9.416  29.520  23.490  0.00  0.00     0.217 HD
ENDBRANCH  11  36
TORSDOF 9
ENDMDL
MODEL 3
REMARK VINA RESULT:    -7.572      1.422      4.338
REMARK INTER + INTRA:           2.197
REMARK INTER:                 -10.202
REMARK INTRA:                  12.399
REMARK UNBOUND:                12.424
REMARK  9 active torsions:
REMARK  status: ('A' for Active; 'I' for Inactive)
REMARK    1  A    between atoms: C_15  and  O_2 
REMARK    2  A    between atoms: O_2  and  C_17 
REMARK    3  A    between atoms: C_11  and  O_3 
REMARK    4  A    between atoms: C_12  and  O_4 
REMARK    5  A    between atoms: C_13  and  O_5 
REMARK    6  A    between atoms: O_8  and  C_23 
REMARK    7  A    between atoms: O_9  and  C_28 
REMARK    8  A    between atoms: O_10  and  C_31 
REMARK    9  A    between atoms: C_18  and  C_22 
ROOT
ATOM      1  O   UNL d   1      -8.570  19.527  34.010  0.00  0.00    -0.306 OA
ATOM      2  O   UNL d   1      -6.304  18.072  35.332  0.00  0.00    -0.284 OA
ATOM      3  C   UNL d   1      -6.933  19.496  34.574  0.00  0.00     0.157 A 
ATOM      4  C   UNL d   1      -7.688  19.981  34.133  0.00  0.00     0.123 A 
ATOM      5  C   UNL d   1      -7.060  18.557  34.891  0.00  0.00     0.223 A 
ATOM      6  C   UNL d   1      -7.942  18.102  34.768  0.00  0.00     0.084 A 
ATOM      7  C   UNL d   1      -8.697  18.587  34.327  0.00  0.00     0.096 A 
ATOM      8  C   UNL d   1      -8.059  17.123  35.104  0.00  0.00     0.085 A 
ATOM      9  C   UNL d   1      -9.622  18.126  34.192  0.00  0.00     0.075 A 
ATOM     10  C   UNL d   1      -8.975  16.643  34.979  0.00  0.00     0.074 A 
ATOM     11  C   UNL d   1      -9.762  17.148  34.520  0.00  0.00     0.071 A 
ENDROOT
BRANCH   3  12
ATOM     12  O   UNL d   1      -6.051  19.951  34.697  0.00  0.00    -0.311 OA
BRANCH  12  13
ATOM     13  C   UNL d   1      -5.256  19.653  34.168  0.00  0.00     0.298 A 
ATOM     14  O   UNL d   1      -5.385  19.144  33.317  0.00  0.00    -0.351 OA
ATOM     15  C   UNL d   1      -4.590  18.845  32.788  0.00  0.00     0.152 A 
ATOM     16  C   UNL d   1      -3.667  19.055  33.111  0.00  0.00     0.178 A 
ATOM     17  C   UNL d   1      -4.718  18.337  31.937  0.00  0.00     0.042 C 
ATOM     18  C   UNL d   1      -3.539  19.564  33.962  0.00  0.00     0.183 A 
ATOM     19  C   UNL d   1      -4.333  19.862  34.491  0.00  0.00     0.205 A 
BRANCH  16  20
ATOM     20  O   UNL d   1      -2.873  18.757  32.582  0.00  0.00    -0.390 OA
ATOM     21  H   UNL d   1      -2.559  18.250  32.753  0.00  0.00     0.210 HD
ENDBRANCH  16  20
BRANCH  18  22
ATOM     22  O   UNL d   1      -2.616  19.774  34.285  0.00  0.00    -0.390 OA
ATOM     23  H   UNL d   1      -2.469  19.688  34.881  0.00  0.00     0.210 HD
ENDBRANCH  18  22
BRANCH  19  24
ATOM     24  O   UNL d   1      -4.205  20.371  35.342  0.00  0.00    -0.388 OA
ATOM     25  H   UNL d   1      -3.787  20.179  35.758  0.00  0.00     0.210 HD
ENDBRANCH  19  24
ENDBRANCH  12  13
ENDBRANCH   3  12
BRANCH   4  26
ATOM     26  C   UNL d   1      -7.561  20.921  33.815  0.00  0.00     0.001 A 
ATOM     27  C   UNL d   1      -7.528  21.672  34.475  0.00  0.00     0.017 A 
ATOM     28  C   UNL d   1      -7.401  22.611  34.157  0.00  0.00     0.037 A 
ATOM     29  C   UNL d   1      -7.308  22.800  33.180  0.00  0.00     0.065 A 
ATOM     30  C   UNL d   1      -7.342  22.050  32.520  0.00  0.00     0.037 A 
ATOM     31  C   UNL d   1      -7.468  21.110  32.838  0.00  0.00     0.017 A 
BRANCH  29  32
ATOM     32  O   UNL d   1      -7.181  23.740  32.862  0.00  0.00    -0.361 OA
ATOM     33  H   UNL d   1      -7.672  24.078  32.689  0.00  0.00     0.217 HD
ENDBRANCH  29  32
ENDBRANCH   4  26
BRANCH   8  34
ATOM     34  O   UNL d   1      -7.297  16.647  35.543  0.00  0.00    -0.360 OA
ATOM     35  H   UNL d   1      -6.728  16.896  35.532  0.00  0.00     0.217 HD
ENDBRANCH   8  34
BRANCH  11  36
ATOM     36  O   UNL d   1     -10.645  16.696  34.395  0.00  0.00    -0.361 OA
ATOM     37  H   UNL d   1     -11.068  16.942  34.014  0.00  0.00     0.217 HD
ENDBRANCH  11  36
TORSDOF 9
ENDMDL
MODEL 4
REMARK VINA RESULT:    -7.480      3.399      5.262
REMARK INTER + INTRA:           2.321
REMARK INTER:                 -10.158
REMARK INTRA:                  12.479
REMARK UNBOUND:                12.424
REMARK  9 active torsions:
REMARK  status: ('A' for Active; 'I' for Inactive)
REMARK    1  A    between atoms: C_15  and  O_2 
REMARK    2  A    between atoms: O_2  and  C_17 
REMARK    3  A    between atoms: C_11  and  O_3 
REMARK    4  A    between atoms: C_12  and  O_4 
REMARK    5  A    between atoms: C_13  and  O_5 
REMARK    6  A    between atoms: O_8  and  C_23 
REMARK    7  A    between atoms: O_9  and  C_28 
REMARK    8  A    between atoms: O_10  and  C_31 
REMARK    9  A    between atoms: C_18  and  C_22 
ROOT
ATOM      1  O   UNL d   1      -8.128  21.663  31.846  0.00  0.00    -0.306 OA
ATOM      2  O   UNL d   1      -6.374  24.030  32.410  0.00  0.00    -0.284 OA
ATOM      3  C   UNL d   1      -7.302  23.082  31.297  0.00  0.00     0.157 A 
ATOM      4  C   UNL d   1      -7.886  22.293  31.109  0.00  0.00     0.123 A 
ATOM      5  C   UNL d   1      -6.959  23.241  32.222  0.00  0.00     0.223 A 
ATOM      6  C   UNL d   1      -7.200  22.611  32.960  0.00  0.00     0.084 A 
ATOM      7  C   UNL d   1      -7.785  21.821  32.772  0.00  0.00     0.096 A 
ATOM      8  C   UNL d   1      -6.835  22.789  33.919  0.00  0.00     0.085 A 
ATOM      9  C   UNL d   1      -8.045  21.156  33.531  0.00  0.00     0.075 A 
ATOM     10  C   UNL d   1      -7.082  22.137  34.693  0.00  0.00     0.074 A 
ATOM     11  C   UNL d   1      -7.691  21.314  34.497  0.00  0.00     0.071 A 
ENDROOT
BRANCH   3  12
ATOM     12  O   UNL d   1      -7.060  23.713  30.559  0.00  0.00    -0.311 OA
BRANCH  12  13
ATOM     13  C   UNL d   1      -6.115  23.768  30.238  0.00  0.00     0.298 A 
ATOM     14  O   UNL d   1      -5.538  22.951  30.238  0.00  0.00    -0.351 OA
ATOM     15  C   UNL d   1      -4.593  23.007  29.917  0.00  0.00     0.152 A 
ATOM     16  C   UNL d   1      -4.224  23.879  29.596  0.00  0.00     0.178 A 
ATOM     17  C   UNL d   1      -4.016  22.190  29.917  0.00  0.00     0.042 C 
ATOM     18  C   UNL d   1      -4.801  24.696  29.596  0.00  0.00     0.183 A 
ATOM     19  C   UNL d   1      -5.746  24.641  29.917  0.00  0.00     0.205 A 
BRANCH  16  20
ATOM     20  O   UNL d   1      -3.278  23.935  29.275  0.00  0.00    -0.390 OA
ATOM     21  H   UNL d   1      -2.897  24.364  29.508  0.00  0.00     0.210 HD
ENDBRANCH  16  20
BRANCH  18  22
ATOM     22  O   UNL d   1      -4.432  25.569  29.276  0.00  0.00    -0.390 OA
ATOM     23  H   UNL d   1      -4.815  26.042  29.156  0.00  0.00     0.210 HD
ENDBRANCH  18  22
BRANCH  19  24
ATOM     24  O   UNL d   1      -6.323  25.458  29.917  0.00  0.00    -0.388 OA
ATOM     25  H   UNL d   1      -6.419  25.769  30.445  0.00  0.00     0.210 HD
ENDBRANCH  19  24
ENDBRANCH  12  13
ENDBRANCH   3  12
BRANCH   4  26
ATOM     26  C   UNL d   1      -8.230  22.134  30.183  0.00  0.00     0.001 A 
ATOM     27  C   UNL d   1      -7.863  21.382  29.636  0.00  0.00     0.017 A 
ATOM     28  C   UNL d   1      -8.206  21.223  28.710  0.00  0.00     0.037 A 
ATOM     29  C   UNL d   1      -8.916  21.817  28.331  0.00  0.00     0.065 A 
ATOM     30  C   UNL d   1      -9.283  22.569  28.879  0.00  0.00     0.037 A 
ATOM     31  C   UNL d   1      -8.940  22.728  29.804  0.00  0.00     0.017 A 
BRANCH  29  32
ATOM     32  O   UNL d   1      -9.259  21.658  27.406  0.00  0.00    -0.361 OA
ATOM     33  H   UNL d   1      -9.235  21.089  27.159  0.00  0.00     0.217 HD
ENDBRANCH  29  32
ENDBRANCH   4  26
BRANCH   8  34
ATOM     34  O   UNL d   1      -6.251  23.581  34.096  0.00  0.00    -0.360 OA
ATOM     35  H   UNL d   1      -6.424  24.144  33.900  0.00  0.00     0.217 HD
ENDBRANCH   8  34
BRANCH  11  36
ATOM     36  O   UNL d   1      -7.935  20.682  35.233  0.00  0.00    -0.361 OA
ATOM     37  H   UNL d   1      -7.732  20.785  35.810  0.00  0.00     0.217 HD
ENDBRANCH  11  36
TORSDOF 9
ENDMDL
MODEL 5
REMARK VINA RESULT:    -7.466      1.199      3.822
REMARK INTER + INTRA:           2.339
REMARK INTER:                 -10.139
REMARK INTRA:                  12.478
REMARK UNBOUND:                12.424
REMARK  9 active torsions:
REMARK  status: ('A' for Active; 'I' for Inactive)
REMARK    1  A    between atoms: C_15  and  O_2 
REMARK    2  A    between atoms: O_2  and  C_17 
REMARK    3  A    between atoms: C_11  and  O_3 
REMARK    4  A    between atoms: C_12  and  O_4 
REMARK    5  A    between atoms: C_13  and  O_5 
REMARK    6  A    between atoms: O_8  and  C_23 
REMARK    7  A    between atoms: O_9  and  C_28 
REMARK    8  A    between atoms: O_10  and  C_31 
REMARK    9  A    between atoms: C_18  and  C_22 
ROOT
ATOM      1  O   UNL d   1      -6.424  18.040  33.606  0.00  0.00    -0.306 OA
ATOM      2  O   UNL d   1      -8.220  20.148  34.759  0.00  0.00    -0.284 OA
ATOM      3  C   UNL d   1      -6.641  19.621  34.280  0.00  0.00     0.157 A 
ATOM      4  C   UNL d   1      -6.043  18.918  33.895  0.00  0.00     0.123 A 
ATOM      5  C   UNL d   1      -7.621  19.445  34.375  0.00  0.00     0.223 A 
ATOM      6  C   UNL d   1      -8.003  18.567  34.085  0.00  0.00     0.084 A 
ATOM      7  C   UNL d   1      -7.404  17.865  33.701  0.00  0.00     0.096 A 
ATOM      8  C   UNL d   1      -9.025  18.399  34.190  0.00  0.00     0.085 A 
ATOM      9  C   UNL d   1      -7.787  16.945  33.395  0.00  0.00     0.075 A 
ATOM     10  C   UNL d   1      -9.430  17.487  33.891  0.00  0.00     0.074 A 
ATOM     11  C   UNL d   1      -8.807  16.755  33.490  0.00  0.00     0.071 A 
ENDROOT
BRANCH   3  12
ATOM     12  O   UNL d   1      -6.260  20.499  34.569  0.00  0.00    -0.311 OA
BRANCH  12  13
ATOM     13  C   UNL d   1      -6.436  21.322  34.030  0.00  0.00     0.298 A 
ATOM     14  O   UNL d   1      -6.745  21.243  33.083  0.00  0.00    -0.351 OA
ATOM     15  C   UNL d   1      -6.921  22.067  32.544  0.00  0.00     0.152 A 
ATOM     16  C   UNL d   1      -6.788  22.970  32.953  0.00  0.00     0.178 A 
ATOM     17  C   UNL d   1      -7.230  21.988  31.596  0.00  0.00     0.042 C 
ATOM     18  C   UNL d   1      -6.480  23.049  33.900  0.00  0.00     0.183 A 
ATOM     19  C   UNL d   1      -6.303  22.225  34.439  0.00  0.00     0.205 A 
BRANCH  16  20
ATOM     20  O   UNL d   1      -6.964  23.793  32.414  0.00  0.00    -0.390 OA
ATOM     21  H   UNL d   1      -6.518  24.030  32.054  0.00  0.00     0.210 HD
ENDBRANCH  16  20
BRANCH  18  22
ATOM     22  O   UNL d   1      -6.347  23.952  34.309  0.00  0.00    -0.390 OA
ATOM     23  H   UNL d   1      -5.853  24.293  34.155  0.00  0.00     0.210 HD
ENDBRANCH  18  22
BRANCH  19  24
ATOM     24  O   UNL d   1      -5.995  22.304  35.387  0.00  0.00    -0.388 OA
ATOM     25  H   UNL d   1      -5.536  22.696  35.532  0.00  0.00     0.210 HD
ENDBRANCH  19  24
ENDBRANCH  12  13
ENDBRANCH   3  12
BRANCH   4  26
ATOM     26  C   UNL d   1      -5.063  19.093  33.800  0.00  0.00     0.001 A 
ATOM     27  C   UNL d   1      -4.482  19.140  34.613  0.00  0.00     0.017 A 
ATOM     28  C   UNL d   1      -3.502  19.315  34.518  0.00  0.00     0.037 A 
ATOM     29  C   UNL d   1      -3.103  19.444  33.610  0.00  0.00     0.065 A 
ATOM     30  C   UNL d   1      -3.684  19.397  32.798  0.00  0.00     0.037 A 
ATOM     31  C   UNL d   1      -4.664  19.222  32.893  0.00  0.00     0.017 A 
BRANCH  29  32
ATOM     32  O   UNL d   1      -2.123  19.619  33.515  0.00  0.00    -0.361 OA
ATOM     33  H   UNL d   1      -1.920  20.196  33.413  0.00  0.00     0.217 HD
ENDBRANCH  29  32
ENDBRANCH   4  26
BRANCH   8  34
ATOM     34  O   UNL d   1      -9.615  19.109  34.576  0.00  0.00    -0.360 OA
ATOM     35  H   UNL d   1      -9.741  19.620  34.247  0.00  0.00     0.217 HD
ENDBRANCH   8  34
BRANCH  11  36
ATOM     36  O   UNL d   1      -9.184  15.876  33.200  0.00  0.00    -0.361 OA
ATOM     37  H   UNL d   1      -9.772  15.840  33.004  0.00  0.00     0.217 HD
ENDBRANCH  11  36
TORSDOF 9
ENDMDL
