MODEL 1
REMARK VINA RESULT:    -8.134      0.000      0.000
REMARK INTER + INTRA:          55.065
REMARK INTER:                 -14.779
REMARK INTRA:                  69.844
REMARK UNBOUND:                69.856
REMARK  23 active torsions:
REMARK  status: ('A' for Active; 'I' for Inactive)
REMARK    1  A    between atoms: C_29  and  O_6 
REMARK    2  A    between atoms: C_32  and  O_7 
REMARK    3  A    between atoms: C_38  and  O_8 
REMARK    4  A    between atoms: O_10  and  C_47 
REMARK    5  A    between atoms: O_11  and  C_48 
REMARK    6  A    between atoms: O_12  and  C_51 
REMARK    7  A    between atoms: O_13  and  C_62 
REMARK    8  A    between atoms: O_14  and  C_63 
REMARK    9  A    between atoms: C_65  and  O_15 
REMARK   10  A    between atoms: O_16  and  C_69 
REMARK   11  A    between atoms: O_17  and  C_70 
REMARK   12  A    between atoms: O_18  and  C_71 
REMARK   13  A    between atoms: O_19  and  C_74 
REMARK   14  A    between atoms: O_20  and  C_75 
REMARK   15  A    between atoms: O_21  and  C_76 
REMARK   16  A    between atoms: O_22  and  C_79 
REMARK   17  A    between atoms: O_23  and  C_82 
REMARK   18  A    between atoms: O_24  and  C_84 
REMARK   19  A    between atoms: C_34  and  C_45 
REMARK   20  A    between atoms: C_35  and  C_46 
REMARK   21  A    between atoms: C_36  and  C_42 
REMARK   22  A    between atoms: C_41  and  C_49 
REMARK   23  A    between atoms: C_64  and  C_77 
ROOT
ATOM      1  O   UNL d   1       2.382  24.765  11.093  0.00  0.00    -0.305 OA
ATOM      2  O   UNL d   1       0.365  24.096   8.061  0.00  0.00    -0.305 OA
ATOM      3  O   UNL d   1       3.943  23.272   8.406  0.00  0.00    -0.337 OA
ATOM      4  O   UNL d   1      -1.363  24.909   8.935  0.00  0.00    -0.306 OA
ATOM      5  O   UNL d   1       5.730  24.114  11.715  0.00  0.00    -0.306 OA
ATOM      6  C   UNL d   1       0.393  24.889  10.066  0.00  0.00     0.097 A 
ATOM      7  C   UNL d   1       4.141  24.158  10.755  0.00  0.00     0.097 A 
ATOM      8  C   UNL d   1       1.289  24.470   9.620  0.00  0.00     0.022 A 
ATOM      9  C   UNL d   1       3.012  24.070   9.776  0.00  0.00     0.021 A 
ATOM     10  C   UNL d   1      -0.529  24.909   9.495  0.00  0.00     0.199 A 
ATOM     11  C   UNL d   1       2.175  24.451  10.167  0.00  0.00     0.092 A 
ATOM     12  C   UNL d   1       2.148  23.690   8.243  0.00  0.00     0.021 A 
ATOM     13  C   UNL d   1       3.558  25.003  12.479  0.00  0.00     0.199 A 
ATOM     14  C   UNL d   1       1.276  24.087   8.652  0.00  0.00     0.092 A 
ATOM     15  C   UNL d   1       4.331  24.477  11.684  0.00  0.00     0.231 A 
ATOM     16  C   UNL d   1      -0.544  24.510   8.486  0.00  0.00     0.231 A 
ATOM     17  C   UNL d   1       2.134  23.290   7.234  0.00  0.00     0.094 A 
ATOM     18  C   UNL d   1       3.022  23.681   8.810  0.00  0.00     0.089 A 
ATOM     19  C   UNL d   1       3.043  22.877   6.810  0.00  0.00     0.165 A 
ATOM     20  C   UNL d   1      -0.476  25.268  10.431  0.00  0.00     0.020 A 
ATOM     21  C   UNL d   1       5.422  23.597  10.213  0.00  0.00     0.020 A 
ATOM     22  C   UNL d   1       3.953  22.868   7.400  0.00  0.00     0.192 A 
ATOM     23  C   UNL d   1      -1.331  25.279   9.882  0.00  0.00     0.085 A 
ATOM     24  C   UNL d   1       6.135  23.683  10.908  0.00  0.00     0.085 A 
ATOM     25  C   UNL d   1      -0.497  25.628  11.317  0.00  0.00     0.078 A 
ATOM     26  C   UNL d   1       5.628  23.171   9.285  0.00  0.00     0.078 A 
ATOM     27  C   UNL d   1      -2.121  25.647  10.272  0.00  0.00     0.074 A 
ATOM     28  C   UNL d   1       7.104  23.349  10.724  0.00  0.00     0.074 A 
ATOM     29  C   UNL d   1      -1.305  25.988  11.676  0.00  0.00     0.073 A 
ATOM     30  C   UNL d   1       6.591  22.830   9.079  0.00  0.00     0.073 A 
ATOM     31  C   UNL d   1      -2.109  25.998  11.160  0.00  0.00     0.071 A 
ATOM     32  C   UNL d   1       7.333  22.920   9.804  0.00  0.00     0.071 A 
ENDROOT
BRANCH  17  33
ATOM     33  C   UNL d   1       1.289  23.304   6.701  0.00  0.00     0.020 A 
ATOM     34  C   UNL d   1       1.096  24.072   6.089  0.00  0.00     0.088 A 
ATOM     35  O   UNL d   1       1.786  24.849   6.020  0.00  0.00    -0.337 OA
ATOM     36  C   UNL d   1       0.252  24.087   5.554  0.00  0.00     0.012 A 
ATOM     37  C   UNL d   1       1.592  25.653   5.385  0.00  0.00     0.191 A 
ATOM     38  C   UNL d   1       0.713  25.668   4.829  0.00  0.00     0.156 A 
ATOM     39  C   UNL d   1       0.037  24.879   4.914  0.00  0.00     0.079 A 
ATOM     40  C   UNL d   1      -0.401  23.332   5.631  0.00  0.00     0.077 A 
ATOM     41  C   UNL d   1      -0.209  22.565   6.242  0.00  0.00     0.074 A 
ATOM     42  C   UNL d   1       0.636  22.551   6.777  0.00  0.00     0.078 A 
BRANCH  37  43
ATOM     43  C   UNL d   1       2.248  26.405   5.311  0.00  0.00    -0.024 A 
ATOM     44  C   UNL d   1       2.237  27.144   5.985  0.00  0.00     0.049 A 
ATOM     45  C   UNL d   1       2.893  27.896   5.912  0.00  0.00     0.099 A 
ATOM     46  C   UNL d   1       3.558  27.909   5.165  0.00  0.00     0.098 A 
ATOM     47  C   UNL d   1       3.568  27.170   4.493  0.00  0.00     0.040 A 
ATOM     48  C   UNL d   1       2.913  26.417   4.565  0.00  0.00     0.013 A 
BRANCH  45  49
ATOM     49  O   UNL d   1       2.882  28.635   6.585  0.00  0.00    -0.358 OA
ATOM     50  H   UNL d   1       2.660  29.193   6.430  0.00  0.00     0.217 HD
ENDBRANCH  45  49
BRANCH  46  51
ATOM     51  O   UNL d   1       4.213  28.660   5.092  0.00  0.00    -0.358 OA
ATOM     52  H   UNL d   1       4.621  28.672   4.624  0.00  0.00     0.217 HD
ENDBRANCH  46  51
ENDBRANCH  37  43
BRANCH  38  53
ATOM     53  O   UNL d   1       0.516  26.434   4.216  0.00  0.00    -0.392 OA
ATOM     54  H   UNL d   1       0.658  27.012   4.388  0.00  0.00     0.210 HD
ENDBRANCH  38  53
BRANCH  40  55
ATOM     55  O   UNL d   1      -1.247  23.346   5.097  0.00  0.00    -0.360 OA
ATOM     56  H   UNL d   1      -1.380  23.836   4.739  0.00  0.00     0.217 HD
ENDBRANCH  40  55
BRANCH  42  57
ATOM     57  O   UNL d   1       1.339  22.236   7.415  0.00  0.00    -0.360 OA
ATOM     58  H   UNL d   1       1.314  21.660   7.644  0.00  0.00     0.217 HD
ENDBRANCH  42  57
ENDBRANCH  17  33
BRANCH  19  59
ATOM     59  O   UNL d   1       3.041  22.506   5.881  0.00  0.00    -0.392 OA
ATOM     60  H   UNL d   1       2.523  22.260   5.647  0.00  0.00     0.210 HD
ENDBRANCH  19  59
BRANCH  22  61
ATOM     61  C   UNL d   1       4.796  22.489   7.018  0.00  0.00    -0.024 A 
ATOM     62  C   UNL d   1       5.420  23.077   6.503  0.00  0.00     0.049 A 
ATOM     63  C   UNL d   1       6.264  22.697   6.121  0.00  0.00     0.099 A 
ATOM     64  C   UNL d   1       6.482  21.731   6.255  0.00  0.00     0.098 A 
ATOM     65  C   UNL d   1       5.858  21.143   6.769  0.00  0.00     0.040 A 
ATOM     66  C   UNL d   1       5.015  21.522   7.151  0.00  0.00     0.013 A 
BRANCH  63  67
ATOM     67  O   UNL d   1       6.888  23.285   5.606  0.00  0.00    -0.358 OA
ATOM     68  H   UNL d   1       6.851  23.900   5.662  0.00  0.00     0.217 HD
ENDBRANCH  63  67
BRANCH  64  69
ATOM     69  O   UNL d   1       7.325  21.351   5.873  0.00  0.00    -0.358 OA
ATOM     70  H   UNL d   1       7.317  21.070   5.321  0.00  0.00     0.217 HD
ENDBRANCH  64  69
ENDBRANCH  22  61
BRANCH  16  71
ATOM     71  C   UNL d   1      -1.401  24.534   7.972  0.00  0.00     0.010 A 
ATOM     72  C   UNL d   1      -2.013  23.744   7.982  0.00  0.00     0.052 A 
ATOM     73  C   UNL d   1      -2.870  23.768   7.468  0.00  0.00     0.099 A 
ATOM     74  C   UNL d   1      -3.115  24.583   6.943  0.00  0.00     0.098 A 
ATOM     75  C   UNL d   1      -2.503  25.374   6.932  0.00  0.00     0.040 A 
ATOM     76  C   UNL d   1      -1.646  25.349   7.447  0.00  0.00     0.015 A 
BRANCH  73  77
ATOM     77  O   UNL d   1      -3.482  22.978   7.478  0.00  0.00    -0.358 OA
ATOM     78  H   UNL d   1      -3.933  22.941   7.903  0.00  0.00     0.217 HD
ENDBRANCH  73  77
BRANCH  74  79
ATOM     79  O   UNL d   1      -3.973  24.609   6.428  0.00  0.00    -0.358 OA
ATOM     80  H   UNL d   1      -4.465  24.291   6.631  0.00  0.00     0.217 HD
ENDBRANCH  74  79
ENDBRANCH  16  71
BRANCH  10  81
ATOM     81  O   UNL d   1      -1.500  25.140   9.421  0.00  0.00    -0.389 OA
ATOM     82  H   UNL d   1      -2.015  25.194   9.080  0.00  0.00     0.210 HD
ENDBRANCH  10  81
BRANCH  13  83
ATOM     83  O   UNL d   1       3.020  25.436  13.202  0.00  0.00    -0.389 OA
ATOM     84  H   UNL d   1       2.828  26.022  13.136  0.00  0.00     0.210 HD
ENDBRANCH  13  83
BRANCH  25  85
ATOM     85  O   UNL d   1       0.334  25.626  11.872  0.00  0.00    -0.360 OA
ATOM     86  H   UNL d   1       0.788  25.223  11.748  0.00  0.00     0.217 HD
ENDBRANCH  25  85
BRANCH  15  87
ATOM     87  C   UNL d   1       4.522  24.797  12.612  0.00  0.00     0.010 A 
ATOM     88  C   UNL d   1       4.843  25.732  12.762  0.00  0.00     0.052 A 
ATOM     89  C   UNL d   1       5.034  26.051  13.691  0.00  0.00     0.099 A 
ATOM     90  C   UNL d   1       4.904  25.436  14.468  0.00  0.00     0.098 A 
ATOM     91  C   UNL d   1       4.583  24.501  14.317  0.00  0.00     0.040 A 
ATOM     92  C   UNL d   1       4.393  24.181  13.389  0.00  0.00     0.015 A 
BRANCH  89  93
ATOM     93  O   UNL d   1       5.354  26.987  13.842  0.00  0.00    -0.358 OA
ATOM     94  H   UNL d   1       5.595  27.146  14.390  0.00  0.00     0.217 HD
ENDBRANCH  89  93
BRANCH  90  95
ATOM     95  O   UNL d   1       5.095  25.755  15.396  0.00  0.00    -0.358 OA
ATOM     96  H   UNL d   1       5.654  25.661  15.648  0.00  0.00     0.217 HD
ENDBRANCH  90  95
ENDBRANCH  15  87
BRANCH  26  97
ATOM     97  O   UNL d   1       4.907  23.090   8.597  0.00  0.00    -0.360 OA
ATOM     98  H   UNL d   1       5.048  23.130   7.994  0.00  0.00     0.217 HD
ENDBRANCH  26  97
BRANCH  31  99
ATOM     99  O   UNL d   1      -2.945  26.379  11.552  0.00  0.00    -0.361 OA
ATOM    100  H   UNL d   1      -2.915  26.738  12.058  0.00  0.00     0.217 HD
ENDBRANCH  31  99
BRANCH  32 101
ATOM    101  O   UNL d   1       8.261  22.596   9.616  0.00  0.00    -0.361 OA
ATOM    102  H   UNL d   1       8.529  22.187   9.997  0.00  0.00     0.217 HD
ENDBRANCH  32 101
TORSDOF 23
ENDMDL
MODEL 2
REMARK VINA RESULT:    -8.009      6.795     12.443
REMARK INTER + INTRA:          55.292
REMARK INTER:                 -14.580
REMARK INTRA:                  69.872
REMARK UNBOUND:                69.856
REMARK  23 active torsions:
REMARK  status: ('A' for Active; 'I' for Inactive)
REMARK    1  A    between atoms: C_29  and  O_6 
REMARK    2  A    between atoms: C_32  and  O_7 
REMARK    3  A    between atoms: C_38  and  O_8 
REMARK    4  A    between atoms: O_10  and  C_47 
REMARK    5  A    between atoms: O_11  and  C_48 
REMARK    6  A    between atoms: O_12  and  C_51 
REMARK    7  A    between atoms: O_13  and  C_62 
REMARK    8  A    between atoms: O_14  and  C_63 
REMARK    9  A    between atoms: C_65  and  O_15 
REMARK   10  A    between atoms: O_16  and  C_69 
REMARK   11  A    between atoms: O_17  and  C_70 
REMARK   12  A    between atoms: O_18  and  C_71 
REMARK   13  A    between atoms: O_19  and  C_74 
REMARK   14  A    between atoms: O_20  and  C_75 
REMARK   15  A    between atoms: O_21  and  C_76 
REMARK   16  A    between atoms: O_22  and  C_79 
REMARK   17  A    between atoms: O_23  and  C_82 
REMARK   18  A    between atoms: O_24  and  C_84 
REMARK   19  A    between atoms: C_34  and  C_45 
REMARK   20  A    between atoms: C_35  and  C_46 
REMARK   21  A    between atoms: C_36  and  C_42 
REMARK   22  A    between atoms: C_41  and  C_49 
REMARK   23  A    between atoms: C_64  and  C_77 
ROOT
ATOM      1  O   UNL d   1       2.777  27.074  -1.822  0.00  0.00    -0.305 OA
ATOM      2  O   UNL d   1       3.890  28.710   1.308  0.00  0.00    -0.305 OA
ATOM      3  O   UNL d   1       4.646  29.959  -2.078  0.00  0.00    -0.337 OA
ATOM      4  O   UNL d   1       2.960  27.249   2.496  0.00  0.00    -0.306 OA
ATOM      5  O   UNL d   1       3.322  27.996  -5.119  0.00  0.00    -0.306 OA
ATOM      6  C   UNL d   1       2.810  27.068   0.420  0.00  0.00     0.097 A 
ATOM      7  C   UNL d   1       3.423  28.106  -3.268  0.00  0.00     0.097 A 
ATOM      8  C   UNL d   1       3.288  27.821  -0.199  0.00  0.00     0.022 A 
ATOM      9  C   UNL d   1       3.657  28.430  -1.825  0.00  0.00     0.021 A 
ATOM     10  C   UNL d   1       2.876  27.144   1.500  0.00  0.00     0.199 A 
ATOM     11  C   UNL d   1       3.224  27.749  -1.236  0.00  0.00     0.092 A 
ATOM     12  C   UNL d   1       4.261  29.324  -0.384  0.00  0.00     0.021 A 
ATOM     13  C   UNL d   1       2.335  26.435  -3.482  0.00  0.00     0.199 A 
ATOM     14  C   UNL d   1       3.809  28.614   0.229  0.00  0.00     0.092 A 
ATOM     15  C   UNL d   1       2.970  27.422  -3.840  0.00  0.00     0.231 A 
ATOM     16  C   UNL d   1       3.420  27.970   1.948  0.00  0.00     0.231 A 
ATOM     17  C   UNL d   1       4.804  30.150   0.063  0.00  0.00     0.094 A 
ATOM     18  C   UNL d   1       4.184  29.232  -1.419  0.00  0.00     0.089 A 
ATOM     19  C   UNL d   1       5.274  30.890  -0.577  0.00  0.00     0.165 A 
ATOM     20  C   UNL d   1       2.383  26.395   1.049  0.00  0.00     0.020 A 
ATOM     21  C   UNL d   1       4.055  29.103  -4.194  0.00  0.00     0.020 A 
ATOM     22  C   UNL d   1       5.194  30.794  -1.655  0.00  0.00     0.192 A 
ATOM     23  C   UNL d   1       2.455  26.482   2.060  0.00  0.00     0.085 A 
ATOM     24  C   UNL d   1       3.866  28.835  -5.138  0.00  0.00     0.085 A 
ATOM     25  C   UNL d   1       1.897  25.655   0.688  0.00  0.00     0.078 A 
ATOM     26  C   UNL d   1       4.613  29.956  -3.981  0.00  0.00     0.078 A 
ATOM     27  C   UNL d   1       2.035  25.821   2.607  0.00  0.00     0.074 A 
ATOM     28  C   UNL d   1       4.222  29.402  -5.936  0.00  0.00     0.074 A 
ATOM     29  C   UNL d   1       1.489  25.012   1.264  0.00  0.00     0.073 A 
ATOM     30  C   UNL d   1       4.979  30.539  -4.764  0.00  0.00     0.073 A 
ATOM     31  C   UNL d   1       1.557  25.094   2.214  0.00  0.00     0.071 A 
ATOM     32  C   UNL d   1       4.781  30.260  -5.748  0.00  0.00     0.071 A 
ENDROOT
BRANCH  17  33
ATOM     33  C   UNL d   1       4.871  30.229   1.057  0.00  0.00     0.020 A 
ATOM     34  C   UNL d   1       5.655  29.835   1.538  0.00  0.00     0.088 A 
ATOM     35  O   UNL d   1       6.393  29.347   0.988  0.00  0.00    -0.337 OA
ATOM     36  C   UNL d   1       5.723  29.913   2.532  0.00  0.00     0.012 A 
ATOM     37  C   UNL d   1       7.213  28.934   1.482  0.00  0.00     0.191 A 
ATOM     38  C   UNL d   1       7.284  29.015   2.518  0.00  0.00     0.156 A 
ATOM     39  C   UNL d   1       6.533  29.508   3.046  0.00  0.00     0.079 A 
ATOM     40  C   UNL d   1       5.006  30.385   3.046  0.00  0.00     0.077 A 
ATOM     41  C   UNL d   1       4.223  30.778   2.566  0.00  0.00     0.074 A 
ATOM     42  C   UNL d   1       4.155  30.700   1.571  0.00  0.00     0.078 A 
BRANCH  37  43
ATOM     43  C   UNL d   1       7.928  28.463   0.964  0.00  0.00    -0.024 A 
ATOM     44  C   UNL d   1       7.870  27.476   0.820  0.00  0.00     0.049 A 
ATOM     45  C   UNL d   1       8.584  27.004   0.301  0.00  0.00     0.099 A 
ATOM     46  C   UNL d   1       9.355  27.521  -0.072  0.00  0.00     0.098 A 
ATOM     47  C   UNL d   1       9.411  28.508   0.073  0.00  0.00     0.040 A 
ATOM     48  C   UNL d   1       8.697  28.980   0.591  0.00  0.00     0.013 A 
BRANCH  45  49
ATOM     49  O   UNL d   1       8.527  26.016   0.157  0.00  0.00    -0.358 OA
ATOM     50  H   UNL d   1       8.171  25.789  -0.297  0.00  0.00     0.217 HD
ENDBRANCH  45  49
BRANCH  46  51
ATOM     51  O   UNL d   1      10.069  27.049  -0.590  0.00  0.00    -0.358 OA
ATOM     52  H   UNL d   1      10.445  26.648  -0.304  0.00  0.00     0.217 HD
ENDBRANCH  46  51
ENDBRANCH  37  43
BRANCH  38  53
ATOM     53  O   UNL d   1       8.066  28.623   3.002  0.00  0.00    -0.392 OA
ATOM     54  H   UNL d   1       8.513  28.335   2.685  0.00  0.00     0.210 HD
ENDBRANCH  38  53
BRANCH  40  55
ATOM     55  O   UNL d   1       5.074  30.463   4.041  0.00  0.00    -0.360 OA
ATOM     56  H   UNL d   1       4.855  30.009   4.404  0.00  0.00     0.217 HD
ENDBRANCH  40  55
BRANCH  42  57
ATOM     57  O   UNL d   1       3.795  30.798   0.643  0.00  0.00    -0.360 OA
ATOM     58  H   UNL d   1       3.711  30.295   0.290  0.00  0.00     0.217 HD
ENDBRANCH  42  57
ENDBRANCH  17  33
BRANCH  19  59
ATOM     59  O   UNL d   1       5.777  31.655  -0.176  0.00  0.00    -0.392 OA
ATOM     60  H   UNL d   1       5.582  32.237  -0.267  0.00  0.00     0.210 HD
ENDBRANCH  19  59
BRANCH  22  61
ATOM     61  C   UNL d   1       5.624  31.470  -2.254  0.00  0.00    -0.024 A 
ATOM     62  C   UNL d   1       5.110  32.277  -2.544  0.00  0.00     0.049 A 
ATOM     63  C   UNL d   1       5.540  32.954  -3.144  0.00  0.00     0.099 A 
ATOM     64  C   UNL d   1       6.482  32.822  -3.451  0.00  0.00     0.098 A 
ATOM     65  C   UNL d   1       6.995  32.015  -3.160  0.00  0.00     0.040 A 
ATOM     66  C   UNL d   1       6.566  31.339  -2.561  0.00  0.00     0.013 A 
BRANCH  63  67
ATOM     67  O   UNL d   1       5.027  33.761  -3.435  0.00  0.00    -0.358 OA
ATOM     68  H   UNL d   1       4.547  33.702  -3.821  0.00  0.00     0.217 HD
ENDBRANCH  63  67
BRANCH  64  69
ATOM     69  O   UNL d   1       6.912  33.498  -4.050  0.00  0.00    -0.358 OA
ATOM     70  H   UNL d   1       6.967  33.384  -4.657  0.00  0.00     0.217 HD
ENDBRANCH  64  69
ENDBRANCH  22  61
BRANCH  16  71
ATOM     71  C   UNL d   1       3.473  28.027   2.944  0.00  0.00     0.010 A 
ATOM     72  C   UNL d   1       2.799  28.566   3.451  0.00  0.00     0.052 A 
ATOM     73  C   UNL d   1       2.852  28.623   4.447  0.00  0.00     0.099 A 
ATOM     74  C   UNL d   1       3.579  28.141   4.938  0.00  0.00     0.098 A 
ATOM     75  C   UNL d   1       4.252  27.603   4.431  0.00  0.00     0.040 A 
ATOM     76  C   UNL d   1       4.199  27.546   3.435  0.00  0.00     0.015 A 
BRANCH  73  77
ATOM     77  O   UNL d   1       2.179  29.161   4.954  0.00  0.00    -0.358 OA
ATOM     78  H   UNL d   1       1.611  28.932   5.053  0.00  0.00     0.217 HD
ENDBRANCH  73  77
BRANCH  74  79
ATOM     79  O   UNL d   1       3.632  28.198   5.936  0.00  0.00    -0.358 OA
ATOM     80  H   UNL d   1       3.874  27.728   6.260  0.00  0.00     0.217 HD
ENDBRANCH  74  79
ENDBRANCH  16  71
BRANCH  10  81
ATOM     81  O   UNL d   1       2.660  26.789   2.410  0.00  0.00    -0.389 OA
ATOM     82  H   UNL d   1       2.698  26.337   2.834  0.00  0.00     0.210 HD
ENDBRANCH  10  81
BRANCH  13  83
ATOM     83  O   UNL d   1       1.801  25.608  -3.306  0.00  0.00    -0.389 OA
ATOM     84  H   UNL d   1       1.225  25.653  -3.081  0.00  0.00     0.210 HD
ENDBRANCH  13  83
BRANCH  25  85
ATOM     85  O   UNL d   1       1.815  25.554  -0.303  0.00  0.00    -0.360 OA
ATOM     86  H   UNL d   1       1.494  25.080  -0.541  0.00  0.00     0.217 HD
ENDBRANCH  25  85
BRANCH  15  87
ATOM     87  C   UNL d   1       2.517  26.738  -4.412  0.00  0.00     0.010 A 
ATOM     88  C   UNL d   1       3.037  25.962  -4.769  0.00  0.00     0.052 A 
ATOM     89  C   UNL d   1       2.584  25.279  -5.341  0.00  0.00     0.099 A 
ATOM     90  C   UNL d   1       1.611  25.371  -5.555  0.00  0.00     0.098 A 
ATOM     91  C   UNL d   1       1.092  26.147  -5.198  0.00  0.00     0.040 A 
ATOM     92  C   UNL d   1       1.545  26.831  -4.626  0.00  0.00     0.015 A 
BRANCH  89  93
ATOM     93  O   UNL d   1       3.103  24.502  -5.699  0.00  0.00    -0.358 OA
ATOM     94  H   UNL d   1       3.206  24.453  -6.308  0.00  0.00     0.217 HD
ENDBRANCH  89  93
BRANCH  90  95
ATOM     95  O   UNL d   1       1.158  24.687  -6.127  0.00  0.00    -0.358 OA
ATOM     96  H   UNL d   1       0.569  24.771  -6.303  0.00  0.00     0.217 HD
ENDBRANCH  90  95
ENDBRANCH  15  87
BRANCH  26  97
ATOM     97  O   UNL d   1       4.796  30.215  -3.033  0.00  0.00    -0.360 OA
ATOM     98  H   UNL d   1       4.795  29.783  -2.588  0.00  0.00     0.217 HD
ENDBRANCH  26  97
BRANCH  31  99
ATOM     99  O   UNL d   1       1.124  24.412   2.802  0.00  0.00    -0.361 OA
ATOM    100  H   UNL d   1       0.716  24.009   2.563  0.00  0.00     0.217 HD
ENDBRANCH  31  99
BRANCH  32 101
ATOM    101  O   UNL d   1       5.128  30.812  -6.506  0.00  0.00    -0.361 OA
ATOM    102  H   UNL d   1       5.698  30.711  -6.728  0.00  0.00     0.217 HD
ENDBRANCH  32 101
TORSDOF 23
ENDMDL
MODEL 3
REMARK VINA RESULT:    -7.911     20.181     24.419
REMARK INTER + INTRA:          55.470
REMARK INTER:                 -14.396
REMARK INTRA:                  69.866
REMARK UNBOUND:                69.856
REMARK  23 active torsions:
REMARK  status: ('A' for Active; 'I' for Inactive)
REMARK    1  A    between atoms: C_29  and  O_6 
REMARK    2  A    between atoms: C_32  and  O_7 
REMARK    3  A    between atoms: C_38  and  O_8 
REMARK    4  A    between atoms: O_10  and  C_47 
REMARK    5  A    between atoms: O_11  and  C_48 
REMARK    6  A    between atoms: O_12  and  C_51 
REMARK    7  A    between atoms: O_13  and  C_62 
REMARK    8  A    between atoms: O_14  and  C_63 
REMARK    9  A    between atoms: C_65  and  O_15 
REMARK   10  A    between atoms: O_16  and  C_69 
REMARK   11  A    between atoms: O_17  and  C_70 
REMARK   12  A    between atoms: O_18  and  C_71 
REMARK   13  A    between atoms: O_19  and  C_74 
REMARK   14  A    between atoms: O_20  and  C_75 
REMARK   15  A    between atoms: O_21  and  C_76 
REMARK   16  A    between atoms: O_22  and  C_79 
REMARK   17  A    between atoms: O_23  and  C_82 
REMARK   18  A    between atoms: O_24  and  C_84 
REMARK   19  A    between atoms: C_34  and  C_45 
REMARK   20  A    between atoms: C_35  and  C_46 
REMARK   21  A    between atoms: C_36  and  C_42 
REMARK   22  A    between atoms: C_41  and  C_49 
REMARK   23  A    between atoms: C_64  and  C_77 
ROOT
ATOM      1  O   UNL d   1      -7.001  36.377  25.572  0.00  0.00    -0.305 OA
ATOM      2  O   UNL d   1      -4.163  35.848  27.892  0.00  0.00    -0.305 OA
ATOM      3  O   UNL d   1      -7.592  34.625  28.482  0.00  0.00    -0.337 OA
ATOM      4  O   UNL d   1      -2.839  36.886  26.635  0.00  0.00    -0.306 OA
ATOM      5  O   UNL d   1     -10.304  35.360  25.844  0.00  0.00    -0.306 OA
ATOM      6  C   UNL d   1      -4.828  36.698  26.025  0.00  0.00     0.097 A 
ATOM      7  C   UNL d   1      -8.524  35.557  26.336  0.00  0.00     0.097 A 
ATOM      8  C   UNL d   1      -5.517  36.163  26.671  0.00  0.00     0.022 A 
ATOM      9  C   UNL d   1      -7.165  35.570  26.964  0.00  0.00     0.021 A 
ATOM     10  C   UNL d   1      -3.791  36.807  26.324  0.00  0.00     0.199 A 
ATOM     11  C   UNL d   1      -6.513  36.059  26.385  0.00  0.00     0.092 A 
ATOM     12  C   UNL d   1      -5.875  35.243  28.176  0.00  0.00     0.021 A 
ATOM     13  C   UNL d   1      -8.532  36.520  24.577  0.00  0.00     0.199 A 
ATOM     14  C   UNL d   1      -5.197  35.753  27.572  0.00  0.00     0.092 A 
ATOM     15  C   UNL d   1      -8.996  35.883  25.517  0.00  0.00     0.231 A 
ATOM     16  C   UNL d   1      -3.456  36.379  27.263  0.00  0.00     0.231 A 
ATOM     17  C   UNL d   1      -5.541  34.815  29.116  0.00  0.00     0.094 A 
ATOM     18  C   UNL d   1      -6.867  35.151  27.870  0.00  0.00     0.089 A 
ATOM     19  C   UNL d   1      -6.249  34.285  29.744  0.00  0.00     0.165 A 
ATOM     20  C   UNL d   1      -4.139  37.188  25.462  0.00  0.00     0.020 A 
ATOM     21  C   UNL d   1      -9.539  34.833  27.170  0.00  0.00     0.020 A 
ATOM     22  C   UNL d   1      -7.281  34.189  29.425  0.00  0.00     0.192 A 
ATOM     23  C   UNL d   1      -3.170  37.280  25.758  0.00  0.00     0.085 A 
ATOM     24  C   UNL d   1     -10.422  34.858  26.702  0.00  0.00     0.085 A 
ATOM     25  C   UNL d   1      -4.401  37.576  24.629  0.00  0.00     0.078 A 
ATOM     26  C   UNL d   1      -9.435  34.356  28.089  0.00  0.00     0.078 A 
ATOM     27  C   UNL d   1      -2.562  37.750  25.192  0.00  0.00     0.074 A 
ATOM     28  C   UNL d   1     -11.262  34.408  27.121  0.00  0.00     0.074 A 
ATOM     29  C   UNL d   1      -3.766  38.040  24.087  0.00  0.00     0.073 A 
ATOM     30  C   UNL d   1     -10.262  33.898  28.528  0.00  0.00     0.073 A 
ATOM     31  C   UNL d   1      -2.856  38.127  24.365  0.00  0.00     0.071 A 
ATOM     32  C   UNL d   1     -11.182  33.925  28.039  0.00  0.00     0.071 A 
ENDROOT
BRANCH  17  33
ATOM     33  C   UNL d   1      -4.587  34.910  29.400  0.00  0.00     0.020 A 
ATOM     34  C   UNL d   1      -3.923  34.199  29.166  0.00  0.00     0.088 A 
ATOM     35  O   UNL d   1      -4.241  33.367  28.627  0.00  0.00    -0.337 OA
ATOM     36  C   UNL d   1      -2.969  34.293  29.449  0.00  0.00     0.012 A 
ATOM     37  C   UNL d   1      -3.555  32.622  28.379  0.00  0.00     0.191 A 
ATOM     38  C   UNL d   1      -2.561  32.720  28.674  0.00  0.00     0.156 A 
ATOM     39  C   UNL d   1      -2.266  33.562  29.214  0.00  0.00     0.079 A 
ATOM     40  C   UNL d   1      -2.679  35.098  29.967  0.00  0.00     0.077 A 
ATOM     41  C   UNL d   1      -3.341  35.809  30.201  0.00  0.00     0.074 A 
ATOM     42  C   UNL d   1      -4.296  35.714  29.917  0.00  0.00     0.078 A 
BRANCH  37  43
ATOM     43  C   UNL d   1      -3.850  31.819  27.861  0.00  0.00    -0.024 A 
ATOM     44  C   UNL d   1      -3.791  31.819  26.863  0.00  0.00     0.049 A 
ATOM     45  C   UNL d   1      -4.086  31.017  26.344  0.00  0.00     0.099 A 
ATOM     46  C   UNL d   1      -4.439  30.213  26.825  0.00  0.00     0.098 A 
ATOM     47  C   UNL d   1      -4.497  30.214  27.823  0.00  0.00     0.040 A 
ATOM     48  C   UNL d   1      -4.202  31.016  28.342  0.00  0.00     0.013 A 
BRANCH  45  49
ATOM     49  O   UNL d   1      -4.028  31.017  25.346  0.00  0.00    -0.358 OA
ATOM     50  H   UNL d   1      -3.476  30.966  25.068  0.00  0.00     0.217 HD
ENDBRANCH  45  49
BRANCH  46  51
ATOM     51  O   UNL d   1      -4.734  29.410  26.307  0.00  0.00    -0.358 OA
ATOM     52  H   UNL d   1      -4.327  28.960  26.176  0.00  0.00     0.217 HD
ENDBRANCH  46  51
ENDBRANCH  37  43
BRANCH  38  53
ATOM     53  O   UNL d   1      -1.895  32.012  28.443  0.00  0.00    -0.392 OA
ATOM     54  H   UNL d   1      -2.084  31.434  28.326  0.00  0.00     0.210 HD
ENDBRANCH  38  53
BRANCH  40  55
ATOM     55  O   UNL d   1      -1.724  35.192  30.251  0.00  0.00    -0.360 OA
ATOM     56  H   UNL d   1      -1.523  35.728  30.491  0.00  0.00     0.217 HD
ENDBRANCH  40  55
BRANCH  42  57
ATOM     57  O   UNL d   1      -5.266  35.926  29.799  0.00  0.00    -0.360 OA
ATOM     58  H   UNL d   1      -5.695  35.499  29.938  0.00  0.00     0.217 HD
ENDBRANCH  42  57
ENDBRANCH  17  33
BRANCH  19  59
ATOM     59  O   UNL d   1      -5.951  33.887  30.612  0.00  0.00    -0.392 OA
ATOM     60  H   UNL d   1      -5.355  33.921  30.781  0.00  0.00     0.210 HD
ENDBRANCH  19  59
BRANCH  22  61
ATOM     61  C   UNL d   1      -7.941  33.702  29.997  0.00  0.00    -0.024 A 
ATOM     62  C   UNL d   1      -8.058  32.714  29.894  0.00  0.00     0.049 A 
ATOM     63  C   UNL d   1      -8.718  32.227  30.467  0.00  0.00     0.099 A 
ATOM     64  C   UNL d   1      -9.261  32.728  31.140  0.00  0.00     0.098 A 
ATOM     65  C   UNL d   1      -9.145  33.715  31.242  0.00  0.00     0.040 A 
ATOM     66  C   UNL d   1      -8.484  34.203  30.670  0.00  0.00     0.013 A 
BRANCH  63  67
ATOM     67  O   UNL d   1      -8.835  31.239  30.365  0.00  0.00    -0.358 OA
ATOM     68  H   UNL d   1      -9.336  31.014  30.078  0.00  0.00     0.217 HD
ENDBRANCH  63  67
BRANCH  64  69
ATOM     69  O   UNL d   1      -9.922  32.241  31.712  0.00  0.00    -0.358 OA
ATOM     70  H   UNL d   1     -10.524  32.248  31.565  0.00  0.00     0.217 HD
ENDBRANCH  64  69
ENDBRANCH  22  61
BRANCH  16  71
ATOM     71  C   UNL d   1      -2.497  36.487  27.526  0.00  0.00     0.010 A 
ATOM     72  C   UNL d   1      -2.221  37.253  28.107  0.00  0.00     0.052 A 
ATOM     73  C   UNL d   1      -1.263  37.360  28.369  0.00  0.00     0.099 A 
ATOM     74  C   UNL d   1      -0.580  36.702  28.051  0.00  0.00     0.098 A 
ATOM     75  C   UNL d   1      -0.856  35.937  27.470  0.00  0.00     0.040 A 
ATOM     76  C   UNL d   1      -1.814  35.829  27.208  0.00  0.00     0.015 A 
BRANCH  73  77
ATOM     77  O   UNL d   1      -0.986  38.126  28.950  0.00  0.00    -0.358 OA
ATOM     78  H   UNL d   1      -0.389  38.288  28.984  0.00  0.00     0.217 HD
ENDBRANCH  73  77
BRANCH  74  79
ATOM     79  O   UNL d   1       0.380  36.810  28.314  0.00  0.00    -0.358 OA
ATOM     80  H   UNL d   1       0.541  36.792  28.912  0.00  0.00     0.217 HD
ENDBRANCH  74  79
ENDBRANCH  16  71
BRANCH  10  81
ATOM     81  O   UNL d   1      -2.867  37.147  26.146  0.00  0.00    -0.389 OA
ATOM     82  H   UNL d   1      -2.490  37.577  25.907  0.00  0.00     0.210 HD
ENDBRANCH  10  81
BRANCH  13  83
ATOM     83  O   UNL d   1      -8.264  37.037  23.764  0.00  0.00    -0.389 OA
ATOM     84  H   UNL d   1      -8.163  37.647  23.803  0.00  0.00     0.210 HD
ENDBRANCH  13  83
BRANCH  25  85
ATOM     85  O   UNL d   1      -5.349  37.496  24.322  0.00  0.00    -0.360 OA
ATOM     86  H   UNL d   1      -5.578  37.902  23.914  0.00  0.00     0.217 HD
ENDBRANCH  25  85
BRANCH  15  87
ATOM     87  C   UNL d   1      -9.469  36.208  24.698  0.00  0.00     0.010 A 
ATOM     88  C   UNL d   1      -9.916  37.103  24.701  0.00  0.00     0.052 A 
ATOM     89  C   UNL d   1     -10.389  37.428  23.882  0.00  0.00     0.099 A 
ATOM     90  C   UNL d   1     -10.414  36.859  23.060  0.00  0.00     0.098 A 
ATOM     91  C   UNL d   1      -9.967  35.964  23.057  0.00  0.00     0.040 A 
ATOM     92  C   UNL d   1      -9.495  35.639  23.876  0.00  0.00     0.015 A 
BRANCH  89  93
ATOM     93  O   UNL d   1     -10.836  38.322  23.884  0.00  0.00    -0.358 OA
ATOM     94  H   UNL d   1     -11.411  38.381  24.108  0.00  0.00     0.217 HD
ENDBRANCH  89  93
BRANCH  90  95
ATOM     95  O   UNL d   1     -10.887  37.184  22.241  0.00  0.00    -0.358 OA
ATOM     96  H   UNL d   1     -10.602  37.576  21.854  0.00  0.00     0.217 HD
ENDBRANCH  90  95
ENDBRANCH  15  87
BRANCH  26  97
ATOM     97  O   UNL d   1      -8.547  34.337  28.549  0.00  0.00    -0.360 OA
ATOM     98  H   UNL d   1      -8.353  33.817  28.826  0.00  0.00     0.217 HD
ENDBRANCH  26  97
BRANCH  31  99
ATOM     99  O   UNL d   1      -2.205  38.616  23.785  0.00  0.00    -0.361 OA
ATOM    100  H   UNL d   1      -1.984  38.347  23.272  0.00  0.00     0.217 HD
ENDBRANCH  31  99
BRANCH  32 101
ATOM    101  O   UNL d   1     -11.982  33.489  28.451  0.00  0.00    -0.361 OA
ATOM    102  H   UNL d   1     -12.335  33.107  28.113  0.00  0.00     0.217 HD
ENDBRANCH  32 101
TORSDOF 23
ENDMDL
MODEL 4
REMARK VINA RESULT:    -7.790      5.622      9.079
REMARK INTER + INTRA:          55.691
REMARK INTER:                 -14.093
REMARK INTRA:                  69.784
REMARK UNBOUND:                69.856
REMARK  23 active torsions:
REMARK  status: ('A' for Active; 'I' for Inactive)
REMARK    1  A    between atoms: C_29  and  O_6 
REMARK    2  A    between atoms: C_32  and  O_7 
REMARK    3  A    between atoms: C_38  and  O_8 
REMARK    4  A    between atoms: O_10  and  C_47 
REMARK    5  A    between atoms: O_11  and  C_48 
REMARK    6  A    between atoms: O_12  and  C_51 
REMARK    7  A    between atoms: O_13  and  C_62 
REMARK    8  A    between atoms: O_14  and  C_63 
REMARK    9  A    between atoms: C_65  and  O_15 
REMARK   10  A    between atoms: O_16  and  C_69 
REMARK   11  A    between atoms: O_17  and  C_70 
REMARK   12  A    between atoms: O_18  and  C_71 
REMARK   13  A    between atoms: O_19  and  C_74 
REMARK   14  A    between atoms: O_20  and  C_75 
REMARK   15  A    between atoms: O_21  and  C_76 
REMARK   16  A    between atoms: O_22  and  C_79 
REMARK   17  A    between atoms: O_23  and  C_82 
REMARK   18  A    between atoms: O_24  and  C_84 
REMARK   19  A    between atoms: C_34  and  C_45 
REMARK   20  A    between atoms: C_35  and  C_46 
REMARK   21  A    between atoms: C_36  and  C_42 
REMARK   22  A    between atoms: C_41  and  C_49 
REMARK   23  A    between atoms: C_64  and  C_77 
ROOT
ATOM      1  O   UNL d   1       6.340  23.637   3.139  0.00  0.00    -0.305 OA
ATOM      2  O   UNL d   1       4.952  27.057   3.435  0.00  0.00    -0.305 OA
ATOM      3  O   UNL d   1       2.914  23.986   3.313  0.00  0.00    -0.337 OA
ATOM      4  O   UNL d   1       6.866  27.921   3.412  0.00  0.00    -0.306 OA
ATOM      5  O   UNL d   1       4.700  20.585   3.001  0.00  0.00    -0.306 OA
ATOM      6  C   UNL d   1       6.726  25.841   3.274  0.00  0.00     0.097 A 
ATOM      7  C   UNL d   1       4.885  22.429   3.120  0.00  0.00     0.097 A 
ATOM      8  C   UNL d   1       5.739  25.389   3.286  0.00  0.00     0.022 A 
ATOM      9  C   UNL d   1       4.749  23.916   3.228  0.00  0.00     0.021 A 
ATOM     10  C   UNL d   1       6.820  26.920   3.345  0.00  0.00     0.199 A 
ATOM     11  C   UNL d   1       5.648  24.354   3.219  0.00  0.00     0.092 A 
ATOM     12  C   UNL d   1       3.946  25.520   3.373  0.00  0.00     0.021 A 
ATOM     13  C   UNL d   1       6.807  21.871   2.997  0.00  0.00     0.199 A 
ATOM     14  C   UNL d   1       4.882  25.976   3.364  0.00  0.00     0.092 A 
ATOM     15  C   UNL d   1       5.589  21.724   3.040  0.00  0.00     0.231 A 
ATOM     16  C   UNL d   1       5.928  27.532   3.426  0.00  0.00     0.231 A 
ATOM     17  C   UNL d   1       3.053  26.132   3.454  0.00  0.00     0.094 A 
ATOM     18  C   UNL d   1       3.879  24.483   3.305  0.00  0.00     0.089 A 
ATOM     19  C   UNL d   1       2.078  25.657   3.464  0.00  0.00     0.165 A 
ATOM     20  C   UNL d   1       7.622  26.320   3.268  0.00  0.00     0.020 A 
ATOM     21  C   UNL d   1       3.560  21.726   3.129  0.00  0.00     0.020 A 
ATOM     22  C   UNL d   1       2.008  24.577   3.393  0.00  0.00     0.192 A 
ATOM     23  C   UNL d   1       7.691  27.332   3.335  0.00  0.00     0.085 A 
ATOM     24  C   UNL d   1       3.713  20.741   3.054  0.00  0.00     0.085 A 
ATOM     25  C   UNL d   1       8.427  25.810   3.198  0.00  0.00     0.078 A 
ATOM     26  C   UNL d   1       2.595  22.113   3.198  0.00  0.00     0.078 A 
ATOM     27  C   UNL d   1       8.558  27.733   3.325  0.00  0.00     0.074 A 
ATOM     28  C   UNL d   1       2.913  20.074   3.043  0.00  0.00     0.074 A 
ATOM     29  C   UNL d   1       9.278  26.243   3.191  0.00  0.00     0.073 A 
ATOM     30  C   UNL d   1       1.779  21.465   3.188  0.00  0.00     0.073 A 
ATOM     31  C   UNL d   1       9.344  27.194   3.254  0.00  0.00     0.071 A 
ATOM     32  C   UNL d   1       1.940  20.438   3.111  0.00  0.00     0.071 A 
ENDROOT
BRANCH  17  33
ATOM     33  C   UNL d   1       3.130  27.126   3.520  0.00  0.00     0.020 A 
ATOM     34  C   UNL d   1       3.080  27.687   2.692  0.00  0.00     0.088 A 
ATOM     35  O   UNL d   1       2.949  27.220   1.771  0.00  0.00    -0.337 OA
ATOM     36  C   UNL d   1       3.157  28.682   2.756  0.00  0.00     0.012 A 
ATOM     37  C   UNL d   1       2.896  27.797   0.905  0.00  0.00     0.191 A 
ATOM     38  C   UNL d   1       2.976  28.832   0.972  0.00  0.00     0.156 A 
ATOM     39  C   UNL d   1       3.107  29.278   1.905  0.00  0.00     0.079 A 
ATOM     40  C   UNL d   1       3.283  29.116   3.649  0.00  0.00     0.077 A 
ATOM     41  C   UNL d   1       3.332  28.557   4.476  0.00  0.00     0.074 A 
ATOM     42  C   UNL d   1       3.256  27.562   4.411  0.00  0.00     0.078 A 
BRANCH  37  43
ATOM     43  C   UNL d   1       2.770  27.358   0.015  0.00  0.00    -0.024 A 
ATOM     44  C   UNL d   1       3.566  27.070  -0.517  0.00  0.00     0.049 A 
ATOM     45  C   UNL d   1       3.442  26.631  -1.407  0.00  0.00     0.099 A 
ATOM     46  C   UNL d   1       2.519  26.480  -1.764  0.00  0.00     0.098 A 
ATOM     47  C   UNL d   1       1.724  26.767  -1.232  0.00  0.00     0.040 A 
ATOM     48  C   UNL d   1       1.849  27.206  -0.342  0.00  0.00     0.013 A 
BRANCH  45  49
ATOM     49  O   UNL d   1       4.238  26.344  -1.939  0.00  0.00    -0.358 OA
ATOM     50  H   UNL d   1       4.384  26.642  -2.463  0.00  0.00     0.217 HD
ENDBRANCH  45  49
BRANCH  46  51
ATOM     51  O   UNL d   1       2.394  26.041  -2.654  0.00  0.00    -0.358 OA
ATOM     52  H   UNL d   1       2.268  25.434  -2.685  0.00  0.00     0.217 HD
ENDBRANCH  46  51
ENDBRANCH  37  43
BRANCH  38  53
ATOM     53  O   UNL d   1       2.927  29.396   0.147  0.00  0.00    -0.392 OA
ATOM     54  H   UNL d   1       2.604  29.200  -0.344  0.00  0.00     0.210 HD
ENDBRANCH  38  53
BRANCH  40  55
ATOM     55  O   UNL d   1       3.359  30.112   3.713  0.00  0.00    -0.360 OA
ATOM     56  H   UNL d   1       3.600  30.372   4.223  0.00  0.00     0.217 HD
ENDBRANCH  40  55
BRANCH  42  57
ATOM     57  O   UNL d   1       3.218  26.602   4.690  0.00  0.00    -0.360 OA
ATOM     58  H   UNL d   1       3.613  26.193   4.442  0.00  0.00     0.217 HD
ENDBRANCH  42  57
ENDBRANCH  17  33
BRANCH  19  59
ATOM     59  O   UNL d   1       1.249  26.211   3.538  0.00  0.00    -0.392 OA
ATOM     60  H   UNL d   1       0.963  26.411   3.026  0.00  0.00     0.210 HD
ENDBRANCH  19  59
BRANCH  22  61
ATOM     61  C   UNL d   1       1.114  24.128   3.401  0.00  0.00    -0.024 A 
ATOM     62  C   UNL d   1       0.627  23.970   2.542  0.00  0.00     0.049 A 
ATOM     63  C   UNL d   1      -0.268  23.521   2.550  0.00  0.00     0.099 A 
ATOM     64  C   UNL d   1      -0.674  23.232   3.417  0.00  0.00     0.098 A 
ATOM     65  C   UNL d   1      -0.187  23.391   4.275  0.00  0.00     0.040 A 
ATOM     66  C   UNL d   1       0.708  23.839   4.267  0.00  0.00     0.013 A 
BRANCH  63  67
ATOM     67  O   UNL d   1      -0.755  23.363   1.692  0.00  0.00    -0.358 OA
ATOM     68  H   UNL d   1      -1.125  23.802   1.459  0.00  0.00     0.217 HD
ENDBRANCH  63  67
BRANCH  64  69
ATOM     69  O   UNL d   1      -1.568  22.784   3.426  0.00  0.00    -0.358 OA
ATOM     70  H   UNL d   1      -1.714  22.374   2.985  0.00  0.00     0.217 HD
ENDBRANCH  64  69
ENDBRANCH  22  61
BRANCH  16  71
ATOM     71  C   UNL d   1       6.030  28.524   3.490  0.00  0.00     0.010 A 
ATOM     72  C   UNL d   1       6.107  29.074   2.657  0.00  0.00     0.052 A 
ATOM     73  C   UNL d   1       6.209  30.066   2.721  0.00  0.00     0.099 A 
ATOM     74  C   UNL d   1       6.234  30.510   3.617  0.00  0.00     0.098 A 
ATOM     75  C   UNL d   1       6.157  29.960   4.449  0.00  0.00     0.040 A 
ATOM     76  C   UNL d   1       6.055  28.968   4.385  0.00  0.00     0.015 A 
BRANCH  73  77
ATOM     77  O   UNL d   1       6.286  30.615   1.889  0.00  0.00    -0.358 OA
ATOM     78  H   UNL d   1       6.823  30.634   1.579  0.00  0.00     0.217 HD
ENDBRANCH  73  77
BRANCH  74  79
ATOM     79  O   UNL d   1       6.336  31.503   3.681  0.00  0.00    -0.358 OA
ATOM     80  H   UNL d   1       6.187  31.796   4.207  0.00  0.00     0.217 HD
ENDBRANCH  74  79
ENDBRANCH  16  71
BRANCH  10  81
ATOM     81  O   UNL d   1       7.390  27.741   3.376  0.00  0.00    -0.389 OA
ATOM     82  H   UNL d   1       7.472  28.333   3.544  0.00  0.00     0.210 HD
ENDBRANCH  10  81
BRANCH  13  83
ATOM     83  O   UNL d   1       7.806  21.871   2.954  0.00  0.00    -0.389 OA
ATOM     84  H   UNL d   1       8.092  21.891   2.404  0.00  0.00     0.210 HD
ENDBRANCH  13  83
BRANCH  25  85
ATOM     85  O   UNL d   1       8.378  24.814   3.132  0.00  0.00    -0.360 OA
ATOM     86  H   UNL d   1       8.727  24.461   3.503  0.00  0.00     0.217 HD
ENDBRANCH  25  85
BRANCH  15  87
ATOM     87  C   UNL d   1       6.294  21.019   2.961  0.00  0.00     0.010 A 
ATOM     88  C   UNL d   1       6.632  20.556   3.781  0.00  0.00     0.052 A 
ATOM     89  C   UNL d   1       7.337  19.851   3.701  0.00  0.00     0.099 A 
ATOM     90  C   UNL d   1       7.703  19.609   2.803  0.00  0.00     0.098 A 
ATOM     91  C   UNL d   1       7.365  20.071   1.983  0.00  0.00     0.040 A 
ATOM     92  C   UNL d   1       6.660  20.777   2.063  0.00  0.00     0.015 A 
BRANCH  89  93
ATOM     93  O   UNL d   1       7.675  19.388   4.521  0.00  0.00    -0.358 OA
ATOM     94  H   UNL d   1       8.170  19.016   4.484  0.00  0.00     0.217 HD
ENDBRANCH  89  93
BRANCH  90  95
ATOM     95  O   UNL d   1       8.407  18.904   2.724  0.00  0.00    -0.358 OA
ATOM     96  H   UNL d   1       8.846  18.951   2.287  0.00  0.00     0.217 HD
ENDBRANCH  90  95
ENDBRANCH  15  87
BRANCH  26  97
ATOM     97  O   UNL d   1       2.453  23.100   3.272  0.00  0.00    -0.360 OA
ATOM     98  H   UNL d   1       2.037  23.324   3.674  0.00  0.00     0.217 HD
ENDBRANCH  26  97
BRANCH  31  99
ATOM     99  O   UNL d   1      10.243  27.631   3.245  0.00  0.00    -0.361 OA
ATOM    100  H   UNL d   1      10.519  27.784   3.779  0.00  0.00     0.217 HD
ENDBRANCH  31  99
BRANCH  32 101
ATOM    101  O   UNL d   1       1.165  19.807   3.101  0.00  0.00    -0.361 OA
ATOM    102  H   UNL d   1       1.113  19.387   2.648  0.00  0.00     0.217 HD
ENDBRANCH  32 101
TORSDOF 23
ENDMDL
MODEL 5
REMARK VINA RESULT:    -7.789      1.374      5.950
REMARK INTER + INTRA:          55.692
REMARK INTER:                 -14.299
REMARK INTRA:                  69.991
REMARK UNBOUND:                69.856
REMARK  23 active torsions:
REMARK  status: ('A' for Active; 'I' for Inactive)
REMARK    1  A    between atoms: C_29  and  O_6 
REMARK    2  A    between atoms: C_32  and  O_7 
REMARK    3  A    between atoms: C_38  and  O_8 
REMARK    4  A    between atoms: O_10  and  C_47 
REMARK    5  A    between atoms: O_11  and  C_48 
REMARK    6  A    between atoms: O_12  and  C_51 
REMARK    7  A    between atoms: O_13  and  C_62 
REMARK    8  A    between atoms: O_14  and  C_63 
REMARK    9  A    between atoms: C_65  and  O_15 
REMARK   10  A    between atoms: O_16  and  C_69 
REMARK   11  A    between atoms: O_17  and  C_70 
REMARK   12  A    between atoms: O_18  and  C_71 
REMARK   13  A    between atoms: O_19  and  C_74 
REMARK   14  A    between atoms: O_20  and  C_75 
REMARK   15  A    between atoms: O_21  and  C_76 
REMARK   16  A    between atoms: O_22  and  C_79 
REMARK   17  A    between atoms: O_23  and  C_82 
REMARK   18  A    between atoms: O_24  and  C_84 
REMARK   19  A    between atoms: C_34  and  C_45 
REMARK   20  A    between atoms: C_35  and  C_46 
REMARK   21  A    between atoms: C_36  and  C_42 
REMARK   22  A    between atoms: C_41  and  C_49 
REMARK   23  A    between atoms: C_64  and  C_77 
ROOT
ATOM      1  O   UNL d   1       4.475  24.250  10.357  0.00  0.00    -0.305 OA
ATOM      2  O   UNL d   1       4.066  22.884   6.939  0.00  0.00    -0.305 OA
ATOM      3  O   UNL d   1       1.313  24.244   8.981  0.00  0.00    -0.337 OA
ATOM      4  O   UNL d   1       6.115  22.447   6.784  0.00  0.00    -0.306 OA
ATOM      5  O   UNL d   1       2.105  25.586  12.506  0.00  0.00    -0.306 OA
ATOM      6  C   UNL d   1       5.428  23.318   8.554  0.00  0.00     0.097 A 
ATOM      7  C   UNL d   1       2.771  24.811  10.955  0.00  0.00     0.097 A 
ATOM      8  C   UNL d   1       4.370  23.546   8.640  0.00  0.00     0.022 A 
ATOM      9  C   UNL d   1       3.038  24.199   9.616  0.00  0.00     0.021 A 
ATOM     10  C   UNL d   1       5.804  22.865   7.643  0.00  0.00     0.199 A 
ATOM     11  C   UNL d   1       4.008  23.980   9.515  0.00  0.00     0.092 A 
ATOM     12  C   UNL d   1       2.702  23.564   7.965  0.00  0.00     0.021 A 
ATOM     13  C   UNL d   1       4.449  24.965  12.043  0.00  0.00     0.199 A 
ATOM     14  C   UNL d   1       3.713  23.337   7.860  0.00  0.00     0.092 A 
ATOM     15  C   UNL d   1       3.253  25.076  11.791  0.00  0.00     0.231 A 
ATOM     16  C   UNL d   1       5.120  22.647   6.829  0.00  0.00     0.231 A 
ATOM     17  C   UNL d   1       2.016  23.346   7.152  0.00  0.00     0.094 A 
ATOM     18  C   UNL d   1       2.362  23.998   8.849  0.00  0.00     0.089 A 
ATOM     19  C   UNL d   1       0.963  23.584   7.262  0.00  0.00     0.165 A 
ATOM     20  C   UNL d   1       6.406  23.082   8.417  0.00  0.00     0.020 A 
ATOM     21  C   UNL d   1       1.325  25.158  11.154  0.00  0.00     0.020 A 
ATOM     22  C   UNL d   1       0.610  24.036   8.183  0.00  0.00     0.192 A 
ATOM     23  C   UNL d   1       6.742  22.658   7.556  0.00  0.00     0.085 A 
ATOM     24  C   UNL d   1       1.209  25.561  12.062  0.00  0.00     0.085 A 
ATOM     25  C   UNL d   1       7.036  23.261   9.113  0.00  0.00     0.078 A 
ATOM     26  C   UNL d   1       0.512  25.036  10.515  0.00  0.00     0.078 A 
ATOM     27  C   UNL d   1       7.672  22.456   7.477  0.00  0.00     0.074 A 
ATOM     28  C   UNL d   1       0.272  25.871  12.393  0.00  0.00     0.074 A 
ATOM     29  C   UNL d   1       7.960  23.046   9.001  0.00  0.00     0.073 A 
ATOM     30  C   UNL d   1      -0.436  25.339  10.826  0.00  0.00     0.073 A 
ATOM     31  C   UNL d   1       8.275  22.648   8.192  0.00  0.00     0.071 A 
ATOM     32  C   UNL d   1      -0.556  25.759  11.771  0.00  0.00     0.071 A 
ENDROOT
BRANCH  17  33
ATOM     33  C   UNL d   1       2.354  22.930   6.309  0.00  0.00     0.020 A 
ATOM     34  C   UNL d   1       2.571  23.505   5.519  0.00  0.00     0.088 A 
ATOM     35  O   UNL d   1       2.441  24.535   5.592  0.00  0.00    -0.337 OA
ATOM     36  C   UNL d   1       2.909  23.089   4.675  0.00  0.00     0.012 A 
ATOM     37  C   UNL d   1       2.665  25.141   4.774  0.00  0.00     0.191 A 
ATOM     38  C   UNL d   1       3.017  24.708   3.895  0.00  0.00     0.156 A 
ATOM     39  C   UNL d   1       3.139  23.674   3.845  0.00  0.00     0.079 A 
ATOM     40  C   UNL d   1       3.029  22.097   4.620  0.00  0.00     0.077 A 
ATOM     41  C   UNL d   1       2.811  21.522   5.408  0.00  0.00     0.074 A 
ATOM     42  C   UNL d   1       2.474  21.939   6.253  0.00  0.00     0.078 A 
BRANCH  37  43
ATOM     43  C   UNL d   1       2.544  26.132   4.834  0.00  0.00    -0.024 A 
ATOM     44  C   UNL d   1       3.275  26.703   5.206  0.00  0.00     0.049 A 
ATOM     45  C   UNL d   1       3.155  27.694   5.267  0.00  0.00     0.099 A 
ATOM     46  C   UNL d   1       2.302  28.114   4.954  0.00  0.00     0.098 A 
ATOM     47  C   UNL d   1       1.571  27.542   4.582  0.00  0.00     0.040 A 
ATOM     48  C   UNL d   1       1.692  26.551   4.521  0.00  0.00     0.013 A 
BRANCH  45  49
ATOM     49  O   UNL d   1       3.886  28.265   5.639  0.00  0.00    -0.358 OA
ATOM     50  H   UNL d   1       4.188  28.088   6.151  0.00  0.00     0.217 HD
ENDBRANCH  45  49
BRANCH  46  51
ATOM     51  O   UNL d   1       2.181  29.104   5.014  0.00  0.00    -0.358 OA
ATOM     52  H   UNL d   1       1.960  29.419   4.527  0.00  0.00     0.217 HD
ENDBRANCH  46  51
ENDBRANCH  37  43
BRANCH  38  53
ATOM     53  O   UNL d   1       3.235  25.279   3.104  0.00  0.00    -0.392 OA
ATOM     54  H   UNL d   1       3.203  25.896   3.149  0.00  0.00     0.210 HD
ENDBRANCH  38  53
BRANCH  40  55
ATOM     55  O   UNL d   1       3.366  21.681   3.775  0.00  0.00    -0.360 OA
ATOM     56  H   UNL d   1       3.431  21.065   3.737  0.00  0.00     0.217 HD
ENDBRANCH  40  55
BRANCH  42  57
ATOM     57  O   UNL d   1       2.137  22.020   7.191  0.00  0.00    -0.360 OA
ATOM     58  H   UNL d   1       2.540  22.049   7.662  0.00  0.00     0.217 HD
ENDBRANCH  42  57
ENDBRANCH  17  33
BRANCH  19  59
ATOM     59  O   UNL d   1       0.323  23.387   6.519  0.00  0.00    -0.392 OA
ATOM     60  H   UNL d   1      -0.259  23.218   6.648  0.00  0.00     0.210 HD
ENDBRANCH  19  59
BRANCH  22  61
ATOM     61  C   UNL d   1      -0.359  24.259   8.294  0.00  0.00    -0.024 A 
ATOM     62  C   UNL d   1      -0.702  25.153   8.008  0.00  0.00     0.049 A 
ATOM     63  C   UNL d   1      -1.671  25.376   8.119  0.00  0.00     0.099 A 
ATOM     64  C   UNL d   1      -2.295  24.704   8.517  0.00  0.00     0.098 A 
ATOM     65  C   UNL d   1      -1.953  23.810   8.803  0.00  0.00     0.040 A 
ATOM     66  C   UNL d   1      -0.984  23.587   8.692  0.00  0.00     0.013 A 
BRANCH  63  67
ATOM     67  O   UNL d   1      -2.015  26.270   7.833  0.00  0.00    -0.358 OA
ATOM     68  H   UNL d   1      -1.651  26.770   7.872  0.00  0.00     0.217 HD
ENDBRANCH  63  67
BRANCH  64  69
ATOM     69  O   UNL d   1      -3.264  24.926   8.629  0.00  0.00    -0.358 OA
ATOM     70  H   UNL d   1      -3.432  25.478   8.855  0.00  0.00     0.217 HD
ENDBRANCH  64  69
ENDBRANCH  22  61
BRANCH  16  71
ATOM     71  C   UNL d   1       5.481  22.230   5.996  0.00  0.00     0.010 A 
ATOM     72  C   UNL d   1       5.476  21.235   5.891  0.00  0.00     0.052 A 
ATOM     73  C   UNL d   1       5.837  20.819   5.058  0.00  0.00     0.099 A 
ATOM     74  C   UNL d   1       6.202  21.396   4.328  0.00  0.00     0.098 A 
ATOM     75  C   UNL d   1       6.207  22.391   4.432  0.00  0.00     0.040 A 
ATOM     76  C   UNL d   1       5.846  22.808   5.266  0.00  0.00     0.015 A 
BRANCH  73  77
ATOM     77  O   UNL d   1       5.832  19.824   4.954  0.00  0.00    -0.358 OA
ATOM     78  H   UNL d   1       5.337  19.497   5.134  0.00  0.00     0.217 HD
ENDBRANCH  73  77
BRANCH  74  79
ATOM     79  O   UNL d   1       6.564  20.979   3.493  0.00  0.00    -0.358 OA
ATOM     80  H   UNL d   1       6.918  21.313   3.109  0.00  0.00     0.217 HD
ENDBRANCH  74  79
ENDBRANCH  16  71
BRANCH  10  81
ATOM     81  O   UNL d   1       6.565  22.501   7.105  0.00  0.00    -0.389 OA
ATOM     82  H   UNL d   1       6.841  22.412   6.556  0.00  0.00     0.210 HD
ENDBRANCH  10  81
BRANCH  13  83
ATOM     83  O   UNL d   1       5.398  24.924  12.355  0.00  0.00    -0.389 OA
ATOM     84  H   UNL d   1       5.756  25.429  12.325  0.00  0.00     0.210 HD
ENDBRANCH  13  83
BRANCH  25  85
ATOM     85  O   UNL d   1       6.725  23.677   9.967  0.00  0.00    -0.360 OA
ATOM     86  H   UNL d   1       6.789  24.287  10.056  0.00  0.00     0.217 HD
ENDBRANCH  25  85
BRANCH  15  87
ATOM     87  C   UNL d   1       3.735  25.340  12.626  0.00  0.00     0.010 A 
ATOM     88  C   UNL d   1       3.757  24.718  13.408  0.00  0.00     0.052 A 
ATOM     89  C   UNL d   1       4.239  24.982  14.244  0.00  0.00     0.099 A 
ATOM     90  C   UNL d   1       4.698  25.869  14.297  0.00  0.00     0.098 A 
ATOM     91  C   UNL d   1       4.675  26.491  13.515  0.00  0.00     0.040 A 
ATOM     92  C   UNL d   1       4.194  26.227  12.679  0.00  0.00     0.015 A 
BRANCH  89  93
ATOM     93  O   UNL d   1       4.262  24.360  15.026  0.00  0.00    -0.358 OA
ATOM     94  H   UNL d   1       3.781  23.985  15.138  0.00  0.00     0.217 HD
ENDBRANCH  89  93
BRANCH  90  95
ATOM     95  O   UNL d   1       5.180  26.133  15.132  0.00  0.00    -0.358 OA
ATOM     96  H   UNL d   1       5.579  26.608  15.123  0.00  0.00     0.217 HD
ENDBRANCH  90  95
ENDBRANCH  15  87
BRANCH  26  97
ATOM     97  O   UNL d   1       0.639  24.632   9.610  0.00  0.00    -0.360 OA
ATOM     98  H   UNL d   1       0.704  24.017   9.551  0.00  0.00     0.217 HD
ENDBRANCH  26  97
BRANCH  31  99
ATOM     99  O   UNL d   1       9.245  22.430   8.092  0.00  0.00    -0.361 OA
ATOM    100  H   UNL d   1       9.647  22.872   7.925  0.00  0.00     0.217 HD
ENDBRANCH  31  99
BRANCH  32 101
ATOM    101  O   UNL d   1      -1.461  26.053  12.079  0.00  0.00    -0.361 OA
ATOM    102  H   UNL d   1      -1.512  26.459  12.545  0.00  0.00     0.217 HD
ENDBRANCH  32 101
TORSDOF 23
ENDMDL
