MODEL 1
REMARK VINA RESULT:    -7.600      0.000      0.000
REMARK INTER + INTRA:           2.149
REMARK INTER:                 -10.290
REMARK INTRA:                  12.439
REMARK UNBOUND:                12.415
REMARK  9 active torsions:
REMARK  status: ('A' for Active; 'I' for Inactive)
REMARK    1  A    between atoms: C_15  and  O_2 
REMARK    2  A    between atoms: O_2  and  C_17 
REMARK    3  A    between atoms: C_11  and  O_3 
REMARK    4  A    between atoms: C_12  and  O_4 
REMARK    5  A    between atoms: C_13  and  O_5 
REMARK    6  A    between atoms: O_8  and  C_23 
REMARK    7  A    between atoms: O_9  and  C_28 
REMARK    8  A    between atoms: O_10  and  C_31 
REMARK    9  A    between atoms: C_18  and  C_22 
ROOT
ATOM      1  O   UNL d   1      -5.494  37.625  24.758  0.00  0.00    -0.306 OA
ATOM      2  O   UNL d   1      -5.143  34.676  24.335  0.00  0.00    -0.284 OA
ATOM      3  C   UNL d   1      -6.178  36.049  24.538  0.00  0.00     0.157 A 
ATOM      4  C   UNL d   1      -6.296  37.032  24.679  0.00  0.00     0.123 A 
ATOM      5  C   UNL d   1      -5.260  35.659  24.476  0.00  0.00     0.223 A 
ATOM      6  C   UNL d   1      -4.458  36.252  24.555  0.00  0.00     0.084 A 
ATOM      7  C   UNL d   1      -4.576  37.235  24.696  0.00  0.00     0.096 A 
ATOM      8  C   UNL d   1      -3.508  35.831  24.488  0.00  0.00     0.085 A 
ATOM      9  C   UNL d   1      -3.750  37.865  24.780  0.00  0.00     0.075 A 
ATOM     10  C   UNL d   1      -2.668  36.442  24.569  0.00  0.00     0.074 A 
ATOM     11  C   UNL d   1      -2.790  37.466  24.716  0.00  0.00     0.071 A 
ENDROOT
BRANCH   3  12
ATOM     12  O   UNL d   1      -6.980  35.456  24.459  0.00  0.00    -0.311 OA
BRANCH  12  13
ATOM     13  C   UNL d   1      -7.189  34.799  25.183  0.00  0.00     0.298 A 
ATOM     14  O   UNL d   1      -6.833  34.943  26.107  0.00  0.00    -0.351 OA
ATOM     15  C   UNL d   1      -7.042  34.285  26.831  0.00  0.00     0.152 A 
ATOM     16  C   UNL d   1      -7.607  33.485  26.632  0.00  0.00     0.178 A 
ATOM     17  C   UNL d   1      -6.686  34.429  27.754  0.00  0.00     0.042 C 
ATOM     18  C   UNL d   1      -7.963  33.341  25.708  0.00  0.00     0.183 A 
ATOM     19  C   UNL d   1      -7.754  33.999  24.984  0.00  0.00     0.205 A 
BRANCH  16  20
ATOM     20  O   UNL d   1      -7.816  32.828  27.356  0.00  0.00    -0.390 OA
ATOM     21  H   UNL d   1      -7.386  32.685  27.779  0.00  0.00     0.210 HD
ENDBRANCH  16  20
BRANCH  18  22
ATOM     22  O   UNL d   1      -8.528  32.541  25.509  0.00  0.00    -0.390 OA
ATOM     23  H   UNL d   1      -9.008  32.589  25.120  0.00  0.00     0.210 HD
ENDBRANCH  18  22
BRANCH  19  24
ATOM     24  O   UNL d   1      -8.110  33.855  24.061  0.00  0.00    -0.388 OA
ATOM     25  H   UNL d   1      -8.552  34.228  23.837  0.00  0.00     0.210 HD
ENDBRANCH  19  24
ENDBRANCH  12  13
ENDBRANCH   3  12
BRANCH   4  26
ATOM     26  C   UNL d   1      -7.214  37.422  24.741  0.00  0.00     0.001 A 
ATOM     27  C   UNL d   1      -7.745  37.586  23.910  0.00  0.00     0.017 A 
ATOM     28  C   UNL d   1      -8.664  37.977  23.972  0.00  0.00     0.037 A 
ATOM     29  C   UNL d   1      -9.051  38.203  24.866  0.00  0.00     0.065 A 
ATOM     30  C   UNL d   1      -8.520  38.039  25.697  0.00  0.00     0.037 A 
ATOM     31  C   UNL d   1      -7.602  37.648  25.635  0.00  0.00     0.017 A 
BRANCH  29  32
ATOM     32  O   UNL d   1      -9.970  38.593  24.928  0.00  0.00    -0.361 OA
ATOM     33  H   UNL d   1     -10.047  39.173  25.133  0.00  0.00     0.217 HD
ENDBRANCH  29  32
ENDBRANCH   4  26
BRANCH   8  34
ATOM     34  O   UNL d   1      -3.402  34.847  24.347  0.00  0.00    -0.360 OA
ATOM     35  H   UNL d   1      -3.431  34.611  23.773  0.00  0.00     0.217 HD
ENDBRANCH   8  34
BRANCH  11  36
ATOM     36  O   UNL d   1      -1.991  38.062  24.795  0.00  0.00    -0.361 OA
ATOM     37  H   UNL d   1      -1.958  38.477  25.255  0.00  0.00     0.217 HD
ENDBRANCH  11  36
TORSDOF 9
ENDMDL
MODEL 2
REMARK VINA RESULT:    -7.209      1.339      4.045
REMARK INTER + INTRA:           2.677
REMARK INTER:                  -9.796
REMARK INTRA:                  12.473
REMARK UNBOUND:                12.415
REMARK  9 active torsions:
REMARK  status: ('A' for Active; 'I' for Inactive)
REMARK    1  A    between atoms: C_15  and  O_2 
REMARK    2  A    between atoms: O_2  and  C_17 
REMARK    3  A    between atoms: C_11  and  O_3 
REMARK    4  A    between atoms: C_12  and  O_4 
REMARK    5  A    between atoms: C_13  and  O_5 
REMARK    6  A    between atoms: O_8  and  C_23 
REMARK    7  A    between atoms: O_9  and  C_28 
REMARK    8  A    between atoms: O_10  and  C_31 
REMARK    9  A    between atoms: C_18  and  C_22 
ROOT
ATOM      1  O   UNL d   1      -6.588  37.630  24.542  0.00  0.00    -0.306 OA
ATOM      2  O   UNL d   1      -7.191  34.709  24.218  0.00  0.00    -0.284 OA
ATOM      3  C   UNL d   1      -6.065  35.979  24.564  0.00  0.00     0.157 A 
ATOM      4  C   UNL d   1      -5.864  36.953  24.672  0.00  0.00     0.123 A 
ATOM      5  C   UNL d   1      -6.990  35.683  24.326  0.00  0.00     0.223 A 
ATOM      6  C   UNL d   1      -7.714  36.360  24.195  0.00  0.00     0.084 A 
ATOM      7  C   UNL d   1      -7.513  37.334  24.303  0.00  0.00     0.096 A 
ATOM      8  C   UNL d   1      -8.673  36.037  23.947  0.00  0.00     0.085 A 
ATOM      9  C   UNL d   1      -8.257  38.052  24.170  0.00  0.00     0.075 A 
ATOM     10  C   UNL d   1      -9.432  36.737  23.809  0.00  0.00     0.074 A 
ATOM     11  C   UNL d   1      -9.223  37.751  23.922  0.00  0.00     0.071 A 
ENDROOT
BRANCH   3  12
ATOM     12  O   UNL d   1      -5.341  35.302  24.695  0.00  0.00    -0.311 OA
BRANCH  12  13
ATOM     13  C   UNL d   1      -5.360  34.698  25.491  0.00  0.00     0.298 A 
ATOM     14  O   UNL d   1      -5.934  34.925  26.278  0.00  0.00    -0.351 OA
ATOM     15  C   UNL d   1      -5.952  34.320  27.074  0.00  0.00     0.152 A 
ATOM     16  C   UNL d   1      -5.396  33.489  27.084  0.00  0.00     0.178 A 
ATOM     17  C   UNL d   1      -6.526  34.547  27.861  0.00  0.00     0.042 C 
ATOM     18  C   UNL d   1      -4.822  33.262  26.298  0.00  0.00     0.183 A 
ATOM     19  C   UNL d   1      -4.804  33.866  25.501  0.00  0.00     0.205 A 
BRANCH  16  20
ATOM     20  O   UNL d   1      -5.415  32.885  27.881  0.00  0.00    -0.390 OA
ATOM     21  H   UNL d   1      -5.939  32.815  28.205  0.00  0.00     0.210 HD
ENDBRANCH  16  20
BRANCH  18  22
ATOM     22  O   UNL d   1      -4.266  32.431  26.308  0.00  0.00    -0.390 OA
ATOM     23  H   UNL d   1      -3.703  32.432  26.049  0.00  0.00     0.210 HD
ENDBRANCH  18  22
BRANCH  19  24
ATOM     24  O   UNL d   1      -4.230  33.639  24.715  0.00  0.00    -0.388 OA
ATOM     25  H   UNL d   1      -3.914  33.106  24.705  0.00  0.00     0.210 HD
ENDBRANCH  19  24
ENDBRANCH  12  13
ENDBRANCH   3  12
BRANCH   4  26
ATOM     26  C   UNL d   1      -4.939  37.249  24.911  0.00  0.00     0.001 A 
ATOM     27  C   UNL d   1      -4.228  37.282  24.208  0.00  0.00     0.017 A 
ATOM     28  C   UNL d   1      -3.304  37.579  24.447  0.00  0.00     0.037 A 
ATOM     29  C   UNL d   1      -3.090  37.842  25.387  0.00  0.00     0.065 A 
ATOM     30  C   UNL d   1      -3.801  37.808  26.090  0.00  0.00     0.037 A 
ATOM     31  C   UNL d   1      -4.726  37.512  25.851  0.00  0.00     0.017 A 
BRANCH  29  32
ATOM     32  O   UNL d   1      -2.165  38.138  25.626  0.00  0.00    -0.361 OA
ATOM     33  H   UNL d   1      -1.735  38.198  25.183  0.00  0.00     0.217 HD
ENDBRANCH  29  32
ENDBRANCH   4  26
BRANCH   8  34
ATOM     34  O   UNL d   1      -8.862  35.061  23.842  0.00  0.00    -0.360 OA
ATOM     35  H   UNL d   1      -8.445  34.691  23.568  0.00  0.00     0.217 HD
ENDBRANCH   8  34
BRANCH  11  36
ATOM     36  O   UNL d   1      -9.944  38.431  23.792  0.00  0.00    -0.361 OA
ATOM     37  H   UNL d   1      -9.797  39.013  23.635  0.00  0.00     0.217 HD
ENDBRANCH  11  36
TORSDOF 9
ENDMDL
MODEL 3
REMARK VINA RESULT:    -7.052      1.519      4.537
REMARK INTER + INTRA:           2.890
REMARK INTER:                  -9.586
REMARK INTRA:                  12.476
REMARK UNBOUND:                12.415
REMARK  9 active torsions:
REMARK  status: ('A' for Active; 'I' for Inactive)
REMARK    1  A    between atoms: C_15  and  O_2 
REMARK    2  A    between atoms: O_2  and  C_17 
REMARK    3  A    between atoms: C_11  and  O_3 
REMARK    4  A    between atoms: C_12  and  O_4 
REMARK    5  A    between atoms: C_13  and  O_5 
REMARK    6  A    between atoms: O_8  and  C_23 
REMARK    7  A    between atoms: O_9  and  C_28 
REMARK    8  A    between atoms: O_10  and  C_31 
REMARK    9  A    between atoms: C_18  and  C_22 
ROOT
ATOM      1  O   UNL d   1      -6.575  37.510  24.410  0.00  0.00    -0.306 OA
ATOM      2  O   UNL d   1      -7.552  37.007  27.202  0.00  0.00    -0.284 OA
ATOM      3  C   UNL d   1      -6.259  37.048  26.049  0.00  0.00     0.157 A 
ATOM      4  C   UNL d   1      -5.934  37.215  25.119  0.00  0.00     0.123 A 
ATOM      5  C   UNL d   1      -7.226  37.175  26.271  0.00  0.00     0.223 A 
ATOM      6  C   UNL d   1      -7.867  37.469  25.562  0.00  0.00     0.084 A 
ATOM      7  C   UNL d   1      -7.542  37.637  24.632  0.00  0.00     0.096 A 
ATOM      8  C   UNL d   1      -8.871  37.597  25.808  0.00  0.00     0.085 A 
ATOM      9  C   UNL d   1      -8.198  37.944  23.883  0.00  0.00     0.075 A 
ATOM     10  C   UNL d   1      -9.545  37.904  25.075  0.00  0.00     0.074 A 
ATOM     11  C   UNL d   1      -9.206  38.078  24.106  0.00  0.00     0.071 A 
ENDROOT
BRANCH   3  12
ATOM     12  O   UNL d   1      -5.618  36.754  26.758  0.00  0.00    -0.311 OA
BRANCH  12  13
ATOM     13  C   UNL d   1      -5.660  35.820  27.114  0.00  0.00     0.298 A 
ATOM     14  O   UNL d   1      -6.137  35.109  26.597  0.00  0.00    -0.351 OA
ATOM     15  C   UNL d   1      -6.179  34.176  26.953  0.00  0.00     0.152 A 
ATOM     16  C   UNL d   1      -5.745  33.953  27.826  0.00  0.00     0.178 A 
ATOM     17  C   UNL d   1      -6.656  33.465  26.436  0.00  0.00     0.042 C 
ATOM     18  C   UNL d   1      -5.268  34.664  28.342  0.00  0.00     0.183 A 
ATOM     19  C   UNL d   1      -5.226  35.598  27.987  0.00  0.00     0.205 A 
BRANCH  16  20
ATOM     20  O   UNL d   1      -5.787  33.020  28.182  0.00  0.00    -0.390 OA
ATOM     21  H   UNL d   1      -5.274  32.747  28.398  0.00  0.00     0.210 HD
ENDBRANCH  16  20
BRANCH  18  22
ATOM     22  O   UNL d   1      -4.833  34.442  29.215  0.00  0.00    -0.390 OA
ATOM     23  H   UNL d   1      -4.327  34.751  29.397  0.00  0.00     0.210 HD
ENDBRANCH  18  22
BRANCH  19  24
ATOM     24  O   UNL d   1      -4.749  36.309  28.503  0.00  0.00    -0.388 OA
ATOM     25  H   UNL d   1      -4.502  36.794  28.207  0.00  0.00     0.210 HD
ENDBRANCH  19  24
ENDBRANCH  12  13
ENDBRANCH   3  12
BRANCH   4  26
ATOM     26  C   UNL d   1      -4.967  37.089  24.897  0.00  0.00     0.001 A 
ATOM     27  C   UNL d   1      -4.301  37.792  25.144  0.00  0.00     0.017 A 
ATOM     28  C   UNL d   1      -3.334  37.665  24.922  0.00  0.00     0.037 A 
ATOM     29  C   UNL d   1      -3.033  36.835  24.453  0.00  0.00     0.065 A 
ATOM     30  C   UNL d   1      -3.700  36.131  24.206  0.00  0.00     0.037 A 
ATOM     31  C   UNL d   1      -4.666  36.258  24.428  0.00  0.00     0.017 A 
BRANCH  29  32
ATOM     32  O   UNL d   1      -2.067  36.708  24.231  0.00  0.00    -0.361 OA
ATOM     33  H   UNL d   1      -1.630  36.919  24.618  0.00  0.00     0.217 HD
ENDBRANCH  29  32
ENDBRANCH   4  26
BRANCH   8  34
ATOM     34  O   UNL d   1      -9.186  37.427  26.742  0.00  0.00    -0.360 OA
ATOM     35  H   UNL d   1      -9.793  37.368  26.859  0.00  0.00     0.217 HD
ENDBRANCH   8  34
BRANCH  11  36
ATOM     36  O   UNL d   1      -9.845  38.372  23.395  0.00  0.00    -0.361 OA
ATOM     37  H   UNL d   1     -10.182  37.952  23.087  0.00  0.00     0.217 HD
ENDBRANCH  11  36
TORSDOF 9
ENDMDL
MODEL 4
REMARK VINA RESULT:    -7.022      1.340      3.856
REMARK INTER + INTRA:           2.931
REMARK INTER:                  -9.505
REMARK INTRA:                  12.436
REMARK UNBOUND:                12.415
REMARK  9 active torsions:
REMARK  status: ('A' for Active; 'I' for Inactive)
REMARK    1  A    between atoms: C_15  and  O_2 
REMARK    2  A    between atoms: O_2  and  C_17 
REMARK    3  A    between atoms: C_11  and  O_3 
REMARK    4  A    between atoms: C_12  and  O_4 
REMARK    5  A    between atoms: C_13  and  O_5 
REMARK    6  A    between atoms: O_8  and  C_23 
REMARK    7  A    between atoms: O_9  and  C_28 
REMARK    8  A    between atoms: O_10  and  C_31 
REMARK    9  A    between atoms: C_18  and  C_22 
ROOT
ATOM      1  O   UNL d   1      -4.196  35.339  24.517  0.00  0.00    -0.306 OA
ATOM      2  O   UNL d   1      -4.773  37.851  26.053  0.00  0.00    -0.284 OA
ATOM      3  C   UNL d   1      -5.166  36.211  25.656  0.00  0.00     0.157 A 
ATOM      4  C   UNL d   1      -4.974  35.374  25.144  0.00  0.00     0.123 A 
ATOM      5  C   UNL d   1      -4.581  37.013  25.541  0.00  0.00     0.223 A 
ATOM      6  C   UNL d   1      -3.803  36.978  24.913  0.00  0.00     0.084 A 
ATOM      7  C   UNL d   1      -3.611  36.141  24.401  0.00  0.00     0.096 A 
ATOM      8  C   UNL d   1      -3.202  37.822  24.803  0.00  0.00     0.085 A 
ATOM      9  C   UNL d   1      -2.804  36.090  23.744  0.00  0.00     0.075 A 
ATOM     10  C   UNL d   1      -2.390  37.793  24.151  0.00  0.00     0.074 A 
ATOM     11  C   UNL d   1      -2.189  36.921  23.618  0.00  0.00     0.071 A 
ENDROOT
BRANCH   3  12
ATOM     12  O   UNL d   1      -5.944  36.246  26.284  0.00  0.00    -0.311 OA
BRANCH  12  13
ATOM     13  C   UNL d   1      -6.747  36.796  26.055  0.00  0.00     0.298 A 
ATOM     14  O   UNL d   1      -6.925  37.050  25.104  0.00  0.00    -0.351 OA
ATOM     15  C   UNL d   1      -7.728  37.600  24.875  0.00  0.00     0.152 A 
ATOM     16  C   UNL d   1      -8.353  37.897  25.597  0.00  0.00     0.178 A 
ATOM     17  C   UNL d   1      -7.906  37.853  23.924  0.00  0.00     0.042 C 
ATOM     18  C   UNL d   1      -8.175  37.644  26.548  0.00  0.00     0.183 A 
ATOM     19  C   UNL d   1      -7.372  37.093  26.777  0.00  0.00     0.205 A 
BRANCH  16  20
ATOM     20  O   UNL d   1      -9.156  38.447  25.368  0.00  0.00    -0.390 OA
ATOM     21  H   UNL d   1      -9.692  38.170  25.228  0.00  0.00     0.210 HD
ENDBRANCH  16  20
BRANCH  18  22
ATOM     22  O   UNL d   1      -8.800  37.941  27.270  0.00  0.00    -0.390 OA
ATOM     23  H   UNL d   1      -9.258  37.566  27.457  0.00  0.00     0.210 HD
ENDBRANCH  18  22
BRANCH  19  24
ATOM     24  O   UNL d   1      -7.194  36.840  27.728  0.00  0.00    -0.388 OA
ATOM     25  H   UNL d   1      -7.656  36.843  28.141  0.00  0.00     0.210 HD
ENDBRANCH  19  24
ENDBRANCH  12  13
ENDBRANCH   3  12
BRANCH   4  26
ATOM     26  C   UNL d   1      -5.560  34.571  25.260  0.00  0.00     0.001 A 
ATOM     27  C   UNL d   1      -5.468  33.998  26.074  0.00  0.00     0.017 A 
ATOM     28  C   UNL d   1      -6.053  33.196  26.190  0.00  0.00     0.037 A 
ATOM     29  C   UNL d   1      -6.731  32.967  25.491  0.00  0.00     0.065 A 
ATOM     30  C   UNL d   1      -6.823  33.540  24.677  0.00  0.00     0.037 A 
ATOM     31  C   UNL d   1      -6.237  34.342  24.561  0.00  0.00     0.017 A 
BRANCH  29  32
ATOM     32  O   UNL d   1      -7.316  32.164  25.607  0.00  0.00    -0.361 OA
ATOM     33  H   UNL d   1      -7.879  32.225  25.859  0.00  0.00     0.217 HD
ENDBRANCH  29  32
ENDBRANCH   4  26
BRANCH   8  34
ATOM     34  O   UNL d   1      -3.404  38.654  25.320  0.00  0.00    -0.360 OA
ATOM     35  H   UNL d   1      -3.505  39.188  25.021  0.00  0.00     0.217 HD
ENDBRANCH   8  34
BRANCH  11  36
ATOM     36  O   UNL d   1      -1.413  36.883  22.989  0.00  0.00    -0.361 OA
ATOM     37  H   UNL d   1      -1.446  37.163  22.437  0.00  0.00     0.217 HD
ENDBRANCH  11  36
TORSDOF 9
ENDMDL
MODEL 5
REMARK VINA RESULT:    -6.984     24.292     26.090
REMARK INTER + INTRA:           2.981
REMARK INTER:                  -9.459
REMARK INTRA:                  12.440
REMARK UNBOUND:                12.415
REMARK  9 active torsions:
REMARK  status: ('A' for Active; 'I' for Inactive)
REMARK    1  A    between atoms: C_15  and  O_2 
REMARK    2  A    between atoms: O_2  and  C_17 
REMARK    3  A    between atoms: C_11  and  O_3 
REMARK    4  A    between atoms: C_12  and  O_4 
REMARK    5  A    between atoms: C_13  and  O_5 
REMARK    6  A    between atoms: O_8  and  C_23 
REMARK    7  A    between atoms: O_9  and  C_28 
REMARK    8  A    between atoms: O_10  and  C_31 
REMARK    9  A    between atoms: C_18  and  C_22 
ROOT
ATOM      1  O   UNL d   1       4.441  28.716   0.861  0.00  0.00    -0.306 OA
ATOM      2  O   UNL d   1       1.824  27.772   1.985  0.00  0.00    -0.284 OA
ATOM      3  C   UNL d   1       3.290  28.679   2.155  0.00  0.00     0.157 A 
ATOM      4  C   UNL d   1       4.162  28.993   1.780  0.00  0.00     0.123 A 
ATOM      5  C   UNL d   1       2.697  28.087   1.610  0.00  0.00     0.223 A 
ATOM      6  C   UNL d   1       2.975  27.809   0.691  0.00  0.00     0.084 A 
ATOM      7  C   UNL d   1       3.847  28.123   0.316  0.00  0.00     0.096 A 
ATOM      8  C   UNL d   1       2.346  27.191   0.135  0.00  0.00     0.085 A 
ATOM      9  C   UNL d   1       4.151  27.842  -0.640  0.00  0.00     0.075 A 
ATOM     10  C   UNL d   1       2.630  26.898  -0.823  0.00  0.00     0.074 A 
ATOM     11  C   UNL d   1       3.538  27.225  -1.214  0.00  0.00     0.071 A 
ENDROOT
BRANCH   3  12
ATOM     12  O   UNL d   1       3.012  28.957   3.074  0.00  0.00    -0.311 OA
BRANCH  12  13
ATOM     13  C   UNL d   1       3.001  28.288   3.817  0.00  0.00     0.298 A 
ATOM     14  O   UNL d   1       3.504  27.428   3.723  0.00  0.00    -0.351 OA
ATOM     15  C   UNL d   1       3.493  26.759   4.466  0.00  0.00     0.152 A 
ATOM     16  C   UNL d   1       2.981  26.949   5.303  0.00  0.00     0.178 A 
ATOM     17  C   UNL d   1       3.996  25.899   4.372  0.00  0.00     0.042 C 
ATOM     18  C   UNL d   1       2.479  27.809   5.398  0.00  0.00     0.183 A 
ATOM     19  C   UNL d   1       2.489  28.478   4.655  0.00  0.00     0.205 A 
BRANCH  16  20
ATOM     20  O   UNL d   1       2.971  26.280   6.046  0.00  0.00    -0.390 OA
ATOM     21  H   UNL d   1       2.652  26.398   6.565  0.00  0.00     0.210 HD
ENDBRANCH  16  20
BRANCH  18  22
ATOM     22  O   UNL d   1       1.966  27.999   6.235  0.00  0.00    -0.390 OA
ATOM     23  H   UNL d   1       1.531  28.441   6.238  0.00  0.00     0.210 HD
ENDBRANCH  18  22
BRANCH  19  24
ATOM     24  O   UNL d   1       1.986  29.337   4.749  0.00  0.00    -0.388 OA
ATOM     25  H   UNL d   1       2.215  29.858   4.502  0.00  0.00     0.210 HD
ENDBRANCH  19  24
ENDBRANCH  12  13
ENDBRANCH   3  12
BRANCH   4  26
ATOM     26  C   UNL d   1       4.756  29.586   2.325  0.00  0.00     0.001 A 
ATOM     27  C   UNL d   1       5.591  29.217   2.734  0.00  0.00     0.017 A 
ATOM     28  C   UNL d   1       6.185  29.810   3.278  0.00  0.00     0.037 A 
ATOM     29  C   UNL d   1       5.943  30.770   3.414  0.00  0.00     0.065 A 
ATOM     30  C   UNL d   1       5.108  31.139   3.006  0.00  0.00     0.037 A 
ATOM     31  C   UNL d   1       4.515  30.547   2.461  0.00  0.00     0.017 A 
BRANCH  29  32
ATOM     32  O   UNL d   1       6.537  31.363   3.959  0.00  0.00    -0.361 OA
ATOM     33  H   UNL d   1       6.903  31.118   4.396  0.00  0.00     0.217 HD
ENDBRANCH  29  32
ENDBRANCH   4  26
BRANCH   8  34
ATOM     34  O   UNL d   1       1.476  26.883   0.520  0.00  0.00    -0.360 OA
ATOM     35  H   UNL d   1       0.969  26.863   0.163  0.00  0.00     0.217 HD
ENDBRANCH   8  34
BRANCH  11  36
ATOM     36  O   UNL d   1       3.820  26.950  -2.133  0.00  0.00    -0.361 OA
ATOM     37  H   UNL d   1       3.392  26.828  -2.565  0.00  0.00     0.217 HD
ENDBRANCH  11  36
TORSDOF 9
ENDMDL
