MODEL 1
REMARK VINA RESULT:    -9.575      0.000      0.000
REMARK INTER + INTRA:          -3.672
REMARK INTER:                 -13.757
REMARK INTRA:                  10.085
REMARK UNBOUND:                10.101
REMARK  11 active torsions:
REMARK  status: ('A' for Active; 'I' for Inactive)
REMARK    1  A    between atoms: C_14  and  O_3 
REMARK    2  A    between atoms: O_5  and  C_20 
REMARK    3  A    between atoms: C_26  and  O_6 
REMARK    4  A    between atoms: O_7  and  C_28 
REMARK    5  A    between atoms: O_8  and  C_33 
REMARK    6  A    between atoms: O_9  and  C_35 
REMARK    7  A    between atoms: O_10  and  C_37 
REMARK    8  A    between atoms: O_11  and  C_40 
REMARK    9  A    between atoms: O_12  and  C_42 
REMARK   10  A    between atoms: C_15  and  C_21 
REMARK   11  A    between atoms: C_27  and  C_34 
ROOT
ATOM      1  O   UNL d   1      -3.148  37.383  23.776  0.00  0.00    -0.306 OA
ATOM      2  O   UNL d   1      -0.515  37.495  26.029  0.00  0.00    -0.306 OA
ATOM      3  O   UNL d   1      -6.790  37.368  24.376  0.00  0.00    -0.338 OA
ATOM      4  C   UNL d   1      -2.281  37.455  25.455  0.00  0.00     0.097 A 
ATOM      5  C   UNL d   1      -1.318  37.399  23.696  0.00  0.00     0.199 A 
ATOM      6  C   UNL d   1      -1.438  37.444  24.917  0.00  0.00     0.231 A 
ATOM      7  C   UNL d   1      -3.766  37.433  25.270  0.00  0.00     0.021 A 
ATOM      8  C   UNL d   1      -1.880  37.513  26.899  0.00  0.00     0.020 A 
ATOM      9  C   UNL d   1      -4.000  37.394  24.298  0.00  0.00     0.085 A 
ATOM     10  C   UNL d   1      -0.882  37.526  26.960  0.00  0.00     0.085 A 
ATOM     11  C   UNL d   1      -4.510  37.452  25.998  0.00  0.00     0.084 A 
ATOM     12  C   UNL d   1      -5.511  37.431  25.711  0.00  0.00     0.012 A 
ATOM     13  C   UNL d   1      -6.286  37.452  26.470  0.00  0.00     0.079 A 
ATOM     14  C   UNL d   1      -5.755  37.391  24.698  0.00  0.00     0.081 A 
ATOM     15  C   UNL d   1      -4.994  37.372  23.988  0.00  0.00     0.075 A 
ATOM     16  C   UNL d   1      -7.330  37.430  26.171  0.00  0.00     0.156 A 
ATOM     17  C   UNL d   1      -7.583  37.388  25.117  0.00  0.00     0.191 A 
ATOM     18  C   UNL d   1      -2.468  37.539  27.758  0.00  0.00     0.078 A 
ATOM     19  C   UNL d   1      -0.403  37.565  27.883  0.00  0.00     0.074 A 
ATOM     20  C   UNL d   1      -2.010  37.579  28.694  0.00  0.00     0.073 A 
ATOM     21  C   UNL d   1      -0.970  37.592  28.756  0.00  0.00     0.071 A 
ENDROOT
BRANCH   6  22
ATOM     22  C   UNL d   1      -0.594  37.432  24.380  0.00  0.00     0.010 A 
ATOM     23  C   UNL d   1      -0.149  36.563  24.168  0.00  0.00     0.052 A 
ATOM     24  C   UNL d   1       0.695  36.551  23.631  0.00  0.00     0.099 A 
ATOM     25  C   UNL d   1       1.092  37.409  23.306  0.00  0.00     0.098 A 
ATOM     26  C   UNL d   1       0.645  38.279  23.518  0.00  0.00     0.040 A 
ATOM     27  C   UNL d   1      -0.197  38.290  24.055  0.00  0.00     0.015 A 
BRANCH  24  28
ATOM     28  O   UNL d   1       1.141  35.682  23.418  0.00  0.00    -0.358 OA
ATOM     29  H   UNL d   1       0.915  35.153  23.650  0.00  0.00     0.217 HD
ENDBRANCH  24  28
BRANCH  25  30
ATOM     30  O   UNL d   1       1.935  37.399  22.768  0.00  0.00    -0.358 OA
ATOM     31  H   UNL d   1       2.133  36.871  22.511  0.00  0.00     0.217 HD
ENDBRANCH  25  30
ENDBRANCH   6  22
BRANCH   5  32
ATOM     32  O   UNL d   1      -1.102  37.365  22.721  0.00  0.00    -0.389 OA
ATOM     33  H   UNL d   1      -1.431  37.701  22.319  0.00  0.00     0.210 HD
ENDBRANCH   5  32
BRANCH  11  34
ATOM     34  O   UNL d   1      -4.266  37.491  26.967  0.00  0.00    -0.359 OA
ATOM     35  H   UNL d   1      -3.709  37.703  27.139  0.00  0.00     0.217 HD
ENDBRANCH  11  34
BRANCH  18  36
ATOM     36  O   UNL d   1      -3.465  37.526  27.686  0.00  0.00    -0.360 OA
ATOM     37  H   UNL d   1      -3.735  37.393  27.144  0.00  0.00     0.217 HD
ENDBRANCH  18  36
BRANCH  21  38
ATOM     38  O   UNL d   1      -0.520  37.630  29.648  0.00  0.00    -0.361 OA
ATOM     39  H   UNL d   1      -0.741  38.004  30.090  0.00  0.00     0.217 HD
ENDBRANCH  21  38
BRANCH  17  40
ATOM     40  C   UNL d   1      -8.541  37.367  24.830  0.00  0.00    -0.024 A 
ATOM     41  C   UNL d   1      -9.089  38.202  24.861  0.00  0.00     0.049 A 
ATOM     42  C   UNL d   1     -10.048  38.182  24.573  0.00  0.00     0.099 A 
ATOM     43  C   UNL d   1     -10.455  37.326  24.256  0.00  0.00     0.098 A 
ATOM     44  C   UNL d   1      -9.907  36.491  24.225  0.00  0.00     0.040 A 
ATOM     45  C   UNL d   1      -8.949  36.511  24.512  0.00  0.00     0.013 A 
BRANCH  42  46
ATOM     46  O   UNL d   1     -10.597  39.016  24.604  0.00  0.00    -0.358 OA
ATOM     47  H   UNL d   1     -11.174  39.000  24.830  0.00  0.00     0.217 HD
ENDBRANCH  42  46
BRANCH  43  48
ATOM     48  O   UNL d   1     -11.414  37.305  23.969  0.00  0.00    -0.358 OA
ATOM     49  H   UNL d   1     -11.773  37.805  24.050  0.00  0.00     0.217 HD
ENDBRANCH  43  48
ENDBRANCH  17  40
BRANCH  16  50
ATOM     50  O   UNL d   1      -8.051  37.448  26.862  0.00  0.00    -0.392 OA
ATOM     51  H   UNL d   1      -8.133  37.953  27.213  0.00  0.00     0.210 HD
ENDBRANCH  16  50
TORSDOF 11
ENDMDL
MODEL 2
REMARK VINA RESULT:    -9.260      1.333      7.722
REMARK INTER + INTRA:          -3.220
REMARK INTER:                 -13.247
REMARK INTRA:                  10.027
REMARK UNBOUND:                10.101
REMARK  11 active torsions:
REMARK  status: ('A' for Active; 'I' for Inactive)
REMARK    1  A    between atoms: C_14  and  O_3 
REMARK    2  A    between atoms: O_5  and  C_20 
REMARK    3  A    between atoms: C_26  and  O_6 
REMARK    4  A    between atoms: O_7  and  C_28 
REMARK    5  A    between atoms: O_8  and  C_33 
REMARK    6  A    between atoms: O_9  and  C_35 
REMARK    7  A    between atoms: O_10  and  C_37 
REMARK    8  A    between atoms: O_11  and  C_40 
REMARK    9  A    between atoms: O_12  and  C_42 
REMARK   10  A    between atoms: C_15  and  C_21 
REMARK   11  A    between atoms: C_27  and  C_34 
ROOT
ATOM      1  O   UNL d   1      -5.794  37.752  23.989  0.00  0.00    -0.306 OA
ATOM      2  O   UNL d   1      -7.973  36.423  26.336  0.00  0.00    -0.306 OA
ATOM      3  O   UNL d   1      -2.106  37.917  23.997  0.00  0.00    -0.338 OA
ATOM      4  C   UNL d   1      -6.341  36.892  25.582  0.00  0.00     0.097 A 
ATOM      5  C   UNL d   1      -7.606  37.569  24.180  0.00  0.00     0.199 A 
ATOM      6  C   UNL d   1      -7.267  37.034  25.231  0.00  0.00     0.231 A 
ATOM      7  C   UNL d   1      -4.915  37.153  25.209  0.00  0.00     0.021 A 
ATOM      8  C   UNL d   1      -6.474  36.194  26.903  0.00  0.00     0.020 A 
ATOM      9  C   UNL d   1      -4.861  37.618  24.325  0.00  0.00     0.085 A 
ATOM     10  C   UNL d   1      -7.444  36.048  27.098  0.00  0.00     0.085 A 
ATOM     11  C   UNL d   1      -4.053  36.914  25.741  0.00  0.00     0.084 A 
ATOM     12  C   UNL d   1      -3.121  37.163  25.347  0.00  0.00     0.012 A 
ATOM     13  C   UNL d   1      -2.222  36.914  25.901  0.00  0.00     0.079 A 
ATOM     14  C   UNL d   1      -3.065  37.648  24.426  0.00  0.00     0.081 A 
ATOM     15  C   UNL d   1      -3.941  37.877  23.913  0.00  0.00     0.075 A 
ATOM     16  C   UNL d   1      -1.251  37.173  25.491  0.00  0.00     0.156 A 
ATOM     17  C   UNL d   1      -1.193  37.678  24.533  0.00  0.00     0.191 A 
ATOM     18  C   UNL d   1      -5.741  35.878  27.571  0.00  0.00     0.078 A 
ATOM     19  C   UNL d   1      -7.748  35.575  27.974  0.00  0.00     0.074 A 
ATOM     20  C   UNL d   1      -6.022  35.402  28.455  0.00  0.00     0.073 A 
ATOM     21  C   UNL d   1      -7.032  35.250  28.657  0.00  0.00     0.071 A 
ENDROOT
BRANCH   6  22
ATOM     22  C   UNL d   1      -8.193  37.175  24.881  0.00  0.00     0.010 A 
ATOM     23  C   UNL d   1      -8.717  37.978  25.163  0.00  0.00     0.052 A 
ATOM     24  C   UNL d   1      -9.643  38.120  24.813  0.00  0.00     0.099 A 
ATOM     25  C   UNL d   1     -10.045  37.457  24.180  0.00  0.00     0.098 A 
ATOM     26  C   UNL d   1      -9.520  36.654  23.899  0.00  0.00     0.040 A 
ATOM     27  C   UNL d   1      -8.595  36.513  24.249  0.00  0.00     0.015 A 
BRANCH  24  28
ATOM     28  O   UNL d   1     -10.168  38.923  25.095  0.00  0.00    -0.358 OA
ATOM     29  H   UNL d   1     -10.363  38.975  25.681  0.00  0.00     0.217 HD
ENDBRANCH  24  28
BRANCH  25  30
ATOM     30  O   UNL d   1     -10.970  37.598  23.830  0.00  0.00    -0.358 OA
ATOM     31  H   UNL d   1     -11.374  37.944  24.147  0.00  0.00     0.217 HD
ENDBRANCH  25  30
ENDBRANCH   6  22
BRANCH   5  32
ATOM     32  O   UNL d   1      -7.995  37.983  23.356  0.00  0.00    -0.389 OA
ATOM     33  H   UNL d   1      -7.675  37.977  22.827  0.00  0.00     0.210 HD
ENDBRANCH   5  32
BRANCH  11  34
ATOM     34  O   UNL d   1      -4.118  36.448  26.624  0.00  0.00    -0.359 OA
ATOM     35  H   UNL d   1      -4.238  36.773  27.138  0.00  0.00     0.217 HD
ENDBRANCH  11  34
BRANCH  18  36
ATOM     36  O   UNL d   1      -4.775  36.029  27.367  0.00  0.00    -0.360 OA
ATOM     37  H   UNL d   1      -4.533  35.816  26.837  0.00  0.00     0.217 HD
ENDBRANCH  18  36
BRANCH  21  38
ATOM     38  O   UNL d   1      -7.313  34.794  29.502  0.00  0.00    -0.361 OA
ATOM     39  H   UNL d   1      -7.856  34.936  29.765  0.00  0.00     0.217 HD
ENDBRANCH  21  38
BRANCH  17  40
ATOM     40  C   UNL d   1      -0.303  37.922  24.145  0.00  0.00    -0.024 A 
ATOM     41  C   UNL d   1       0.102  37.353  23.430  0.00  0.00     0.049 A 
ATOM     42  C   UNL d   1       0.992  37.597  23.042  0.00  0.00     0.099 A 
ATOM     43  C   UNL d   1       1.474  38.408  23.371  0.00  0.00     0.098 A 
ATOM     44  C   UNL d   1       1.069  38.977  24.087  0.00  0.00     0.040 A 
ATOM     45  C   UNL d   1       0.179  38.733  24.474  0.00  0.00     0.013 A 
BRANCH  42  46
ATOM     46  O   UNL d   1       1.398  37.030  22.326  0.00  0.00    -0.358 OA
ATOM     47  H   UNL d   1       1.775  36.561  22.477  0.00  0.00     0.217 HD
ENDBRANCH  42  46
BRANCH  43  48
ATOM     48  O   UNL d   1       2.364  38.652  22.984  0.00  0.00    -0.358 OA
ATOM     49  H   UNL d   1       2.821  38.848  23.355  0.00  0.00     0.217 HD
ENDBRANCH  43  48
ENDBRANCH  17  40
BRANCH  16  50
ATOM     50  O   UNL d   1      -0.417  36.948  25.993  0.00  0.00    -0.392 OA
ATOM     51  H   UNL d   1      -0.428  36.513  26.435  0.00  0.00     0.210 HD
ENDBRANCH  16  50
TORSDOF 11
ENDMDL
MODEL 3
REMARK VINA RESULT:    -9.076      2.121      8.149
REMARK INTER + INTRA:          -2.954
REMARK INTER:                 -12.967
REMARK INTRA:                  10.013
REMARK UNBOUND:                10.101
REMARK  11 active torsions:
REMARK  status: ('A' for Active; 'I' for Inactive)
REMARK    1  A    between atoms: C_14  and  O_3 
REMARK    2  A    between atoms: O_5  and  C_20 
REMARK    3  A    between atoms: C_26  and  O_6 
REMARK    4  A    between atoms: O_7  and  C_28 
REMARK    5  A    between atoms: O_8  and  C_33 
REMARK    6  A    between atoms: O_9  and  C_35 
REMARK    7  A    between atoms: O_10  and  C_37 
REMARK    8  A    between atoms: O_11  and  C_40 
REMARK    9  A    between atoms: O_12  and  C_42 
REMARK   10  A    between atoms: C_15  and  C_21 
REMARK   11  A    between atoms: C_27  and  C_34 
ROOT
ATOM      1  O   UNL d   1      -6.244  37.878  24.197  0.00  0.00    -0.306 OA
ATOM      2  O   UNL d   1      -8.563  35.376  24.813  0.00  0.00    -0.306 OA
ATOM      3  O   UNL d   1      -2.560  37.714  24.027  0.00  0.00    -0.338 OA
ATOM      4  C   UNL d   1      -6.888  36.140  24.572  0.00  0.00     0.097 A 
ATOM      5  C   UNL d   1      -8.067  37.744  24.323  0.00  0.00     0.199 A 
ATOM      6  C   UNL d   1      -7.792  36.567  24.538  0.00  0.00     0.231 A 
ATOM      7  C   UNL d   1      -5.441  36.493  24.424  0.00  0.00     0.021 A 
ATOM      8  C   UNL d   1      -7.101  34.685  24.868  0.00  0.00     0.020 A 
ATOM      9  C   UNL d   1      -5.333  37.467  24.228  0.00  0.00     0.085 A 
ATOM     10  C   UNL d   1      -8.081  34.511  24.956  0.00  0.00     0.085 A 
ATOM     11  C   UNL d   1      -4.611  35.868  24.501  0.00  0.00     0.084 A 
ATOM     12  C   UNL d   1      -3.656  36.264  24.371  0.00  0.00     0.012 A 
ATOM     13  C   UNL d   1      -2.792  35.614  24.451  0.00  0.00     0.079 A 
ATOM     14  C   UNL d   1      -3.545  37.280  24.166  0.00  0.00     0.081 A 
ATOM     15  C   UNL d   1      -4.389  37.885  24.094  0.00  0.00     0.075 A 
ATOM     16  C   UNL d   1      -1.796  36.026  24.316  0.00  0.00     0.156 A 
ATOM     17  C   UNL d   1      -1.681  37.083  24.103  0.00  0.00     0.191 A 
ATOM     18  C   UNL d   1      -6.409  33.915  24.981  0.00  0.00     0.078 A 
ATOM     19  C   UNL d   1      -8.438  33.555  25.162  0.00  0.00     0.074 A 
ATOM     20  C   UNL d   1      -6.743  32.950  25.188  0.00  0.00     0.073 A 
ATOM     21  C   UNL d   1      -7.765  32.769  25.279  0.00  0.00     0.071 A 
ENDROOT
BRANCH   6  22
ATOM     22  C   UNL d   1      -8.696  36.994  24.504  0.00  0.00     0.010 A 
ATOM     23  C   UNL d   1      -9.103  37.369  25.337  0.00  0.00     0.052 A 
ATOM     24  C   UNL d   1     -10.007  37.795  25.303  0.00  0.00     0.099 A 
ATOM     25  C   UNL d   1     -10.503  37.847  24.437  0.00  0.00     0.098 A 
ATOM     26  C   UNL d   1     -10.095  37.471  23.604  0.00  0.00     0.040 A 
ATOM     27  C   UNL d   1      -9.192  37.045  23.638  0.00  0.00     0.015 A 
BRANCH  24  28
ATOM     28  O   UNL d   1     -10.414  38.170  26.136  0.00  0.00    -0.358 OA
ATOM     29  H   UNL d   1     -10.318  37.891  26.681  0.00  0.00     0.217 HD
ENDBRANCH  24  28
BRANCH  25  30
ATOM     30  O   UNL d   1     -11.407  38.273  24.402  0.00  0.00    -0.358 OA
ATOM     31  H   UNL d   1     -11.786  38.239  24.892  0.00  0.00     0.217 HD
ENDBRANCH  25  30
ENDBRANCH   6  22
BRANCH   5  32
ATOM     32  O   UNL d   1      -8.405  38.671  24.161  0.00  0.00    -0.389 OA
ATOM     33  H   UNL d   1      -9.008  38.766  24.054  0.00  0.00     0.210 HD
ENDBRANCH   5  32
BRANCH  11  34
ATOM     34  O   UNL d   1      -4.729  34.895  24.697  0.00  0.00    -0.359 OA
ATOM     35  H   UNL d   1      -5.057  34.716  25.193  0.00  0.00     0.217 HD
ENDBRANCH  11  34
BRANCH  18  36
ATOM     36  O   UNL d   1      -5.431  34.101  24.891  0.00  0.00    -0.360 OA
ATOM     37  H   UNL d   1      -5.236  34.669  24.738  0.00  0.00     0.217 HD
ENDBRANCH  18  36
BRANCH  21  38
ATOM     38  O   UNL d   1      -8.096  31.847  25.478  0.00  0.00    -0.361 OA
ATOM     39  H   UNL d   1      -7.862  31.530  25.956  0.00  0.00     0.217 HD
ENDBRANCH  21  38
BRANCH  17  40
ATOM     40  C   UNL d   1      -0.768  37.474  23.976  0.00  0.00    -0.024 A 
ATOM     41  C   UNL d   1      -0.316  37.409  23.087  0.00  0.00     0.049 A 
ATOM     42  C   UNL d   1       0.596  37.800  22.961  0.00  0.00     0.099 A 
ATOM     43  C   UNL d   1       1.054  38.255  23.724  0.00  0.00     0.098 A 
ATOM     44  C   UNL d   1       0.602  38.320  24.613  0.00  0.00     0.040 A 
ATOM     45  C   UNL d   1      -0.310  37.929  24.739  0.00  0.00     0.013 A 
BRANCH  42  46
ATOM     46  O   UNL d   1       1.049  37.736  22.072  0.00  0.00    -0.358 OA
ATOM     47  H   UNL d   1       0.737  37.528  21.579  0.00  0.00     0.217 HD
ENDBRANCH  42  46
BRANCH  43  48
ATOM     48  O   UNL d   1       1.967  38.646  23.597  0.00  0.00    -0.358 OA
ATOM     49  H   UNL d   1       2.081  39.230  23.774  0.00  0.00     0.217 HD
ENDBRANCH  43  48
ENDBRANCH  17  40
BRANCH  16  50
ATOM     50  O   UNL d   1      -0.994  35.435  24.387  0.00  0.00    -0.392 OA
ATOM     51  H   UNL d   1      -1.048  34.825  24.292  0.00  0.00     0.210 HD
ENDBRANCH  16  50
TORSDOF 11
ENDMDL
MODEL 4
REMARK VINA RESULT:    -8.810     26.013     28.745
REMARK INTER + INTRA:          -2.572
REMARK INTER:                 -12.556
REMARK INTRA:                   9.984
REMARK UNBOUND:                10.101
REMARK  11 active torsions:
REMARK  status: ('A' for Active; 'I' for Inactive)
REMARK    1  A    between atoms: C_14  and  O_3 
REMARK    2  A    between atoms: O_5  and  C_20 
REMARK    3  A    between atoms: C_26  and  O_6 
REMARK    4  A    between atoms: O_7  and  C_28 
REMARK    5  A    between atoms: O_8  and  C_33 
REMARK    6  A    between atoms: O_9  and  C_35 
REMARK    7  A    between atoms: O_10  and  C_37 
REMARK    8  A    between atoms: O_11  and  C_40 
REMARK    9  A    between atoms: O_12  and  C_42 
REMARK   10  A    between atoms: C_15  and  C_21 
REMARK   11  A    between atoms: C_27  and  C_34 
ROOT
ATOM      1  O   UNL d   1      -4.126  33.657  -0.504  0.00  0.00    -0.306 OA
ATOM      2  O   UNL d   1      -7.373  34.693  -1.139  0.00  0.00    -0.306 OA
ATOM      3  O   UNL d   1      -1.157  33.666  -2.698  0.00  0.00    -0.338 OA
ATOM      4  C   UNL d   1      -5.579  34.362  -1.488  0.00  0.00     0.097 A 
ATOM      5  C   UNL d   1      -5.708  33.739   0.415  0.00  0.00     0.199 A 
ATOM      6  C   UNL d   1      -6.103  34.205  -0.650  0.00  0.00     0.231 A 
ATOM      7  C   UNL d   1      -4.193  34.198  -2.027  0.00  0.00     0.021 A 
ATOM      8  C   UNL d   1      -6.525  34.946  -2.494  0.00  0.00     0.020 A 
ATOM      9  C   UNL d   1      -3.588  33.807  -1.333  0.00  0.00     0.085 A 
ATOM     10  C   UNL d   1      -7.431  35.031  -2.079  0.00  0.00     0.085 A 
ATOM     11  C   UNL d   1      -3.835  34.435  -2.976  0.00  0.00     0.084 A 
ATOM     12  C   UNL d   1      -2.834  34.262  -3.206  0.00  0.00     0.012 A 
ATOM     13  C   UNL d   1      -2.461  34.509  -4.194  0.00  0.00     0.079 A 
ATOM     14  C   UNL d   1      -2.204  33.854  -2.482  0.00  0.00     0.081 A 
ATOM     15  C   UNL d   1      -2.584  33.626  -1.540  0.00  0.00     0.075 A 
ATOM     16  C   UNL d   1      -1.417  34.329  -4.433  0.00  0.00     0.156 A 
ATOM     17  C   UNL d   1      -0.762  33.904  -3.680  0.00  0.00     0.191 A 
ATOM     18  C   UNL d   1      -6.359  35.243  -3.478  0.00  0.00     0.078 A 
ATOM     19  C   UNL d   1      -8.233  35.419  -2.619  0.00  0.00     0.074 A 
ATOM     20  C   UNL d   1      -7.147  35.634  -4.038  0.00  0.00     0.073 A 
ATOM     21  C   UNL d   1      -8.090  35.722  -3.604  0.00  0.00     0.071 A 
ENDROOT
BRANCH   6  22
ATOM     22  C   UNL d   1      -6.627  34.049   0.187  0.00  0.00     0.010 A 
ATOM     23  C   UNL d   1      -7.184  33.223   0.281  0.00  0.00     0.052 A 
ATOM     24  C   UNL d   1      -7.708  33.066   1.118  0.00  0.00     0.099 A 
ATOM     25  C   UNL d   1      -7.675  33.735   1.861  0.00  0.00     0.098 A 
ATOM     26  C   UNL d   1      -7.119  34.561   1.766  0.00  0.00     0.040 A 
ATOM     27  C   UNL d   1      -6.595  34.718   0.929  0.00  0.00     0.015 A 
BRANCH  24  28
ATOM     28  O   UNL d   1      -8.264  32.241   1.213  0.00  0.00    -0.358 OA
ATOM     29  H   UNL d   1      -8.822  32.211   0.944  0.00  0.00     0.217 HD
ENDBRANCH  24  28
BRANCH  25  30
ATOM     30  O   UNL d   1      -8.199  33.580   2.698  0.00  0.00    -0.358 OA
ATOM     31  H   UNL d   1      -8.543  33.067   2.759  0.00  0.00     0.217 HD
ENDBRANCH  25  30
ENDBRANCH   6  22
BRANCH   5  32
ATOM     32  O   UNL d   1      -5.499  33.374   1.322  0.00  0.00    -0.389 OA
ATOM     33  H   UNL d   1      -5.070  32.932   1.386  0.00  0.00     0.210 HD
ENDBRANCH   5  32
BRANCH  11  34
ATOM     34  O   UNL d   1      -4.448  34.826  -3.663  0.00  0.00    -0.359 OA
ATOM     35  H   UNL d   1      -5.057  34.856  -3.554  0.00  0.00     0.217 HD
ENDBRANCH  11  34
BRANCH  18  36
ATOM     36  O   UNL d   1      -5.450  35.154  -3.884  0.00  0.00    -0.360 OA
ATOM     37  H   UNL d   1      -5.302  34.645  -4.206  0.00  0.00     0.217 HD
ENDBRANCH  18  36
BRANCH  21  38
ATOM     38  O   UNL d   1      -8.852  36.096  -4.132  0.00  0.00    -0.361 OA
ATOM     39  H   UNL d   1      -8.805  36.658  -4.390  0.00  0.00     0.217 HD
ENDBRANCH  21  38
BRANCH  17  40
ATOM     40  C   UNL d   1       0.202  33.734  -3.890  0.00  0.00    -0.024 A 
ATOM     41  C   UNL d   1       0.874  34.465  -3.777  0.00  0.00     0.049 A 
ATOM     42  C   UNL d   1       1.837  34.295  -3.987  0.00  0.00     0.099 A 
ATOM     43  C   UNL d   1       2.127  33.394  -4.308  0.00  0.00     0.098 A 
ATOM     44  C   UNL d   1       1.455  32.662  -4.420  0.00  0.00     0.040 A 
ATOM     45  C   UNL d   1       0.491  32.833  -4.211  0.00  0.00     0.013 A 
BRANCH  42  46
ATOM     46  O   UNL d   1       2.510  35.026  -3.875  0.00  0.00    -0.358 OA
ATOM     47  H   UNL d   1       3.105  34.887  -3.770  0.00  0.00     0.217 HD
ENDBRANCH  42  46
BRANCH  43  48
ATOM     48  O   UNL d   1       3.090  33.223  -4.518  0.00  0.00    -0.358 OA
ATOM     49  H   UNL d   1       3.356  32.691  -4.343  0.00  0.00     0.217 HD
ENDBRANCH  43  48
ENDBRANCH  17  40
BRANCH  16  50
ATOM     50  O   UNL d   1      -1.064  34.552  -5.341  0.00  0.00    -0.392 OA
ATOM     51  H   UNL d   1      -0.488  34.772  -5.405  0.00  0.00     0.210 HD
ENDBRANCH  16  50
TORSDOF 11
ENDMDL
MODEL 5
REMARK VINA RESULT:    -8.717      2.011      2.700
REMARK INTER + INTRA:          -2.439
REMARK INTER:                 -12.438
REMARK INTRA:                   9.999
REMARK UNBOUND:                10.101
REMARK  11 active torsions:
REMARK  status: ('A' for Active; 'I' for Inactive)
REMARK    1  A    between atoms: C_14  and  O_3 
REMARK    2  A    between atoms: O_5  and  C_20 
REMARK    3  A    between atoms: C_26  and  O_6 
REMARK    4  A    between atoms: O_7  and  C_28 
REMARK    5  A    between atoms: O_8  and  C_33 
REMARK    6  A    between atoms: O_9  and  C_35 
REMARK    7  A    between atoms: O_10  and  C_37 
REMARK    8  A    between atoms: O_11  and  C_40 
REMARK    9  A    between atoms: O_12  and  C_42 
REMARK   10  A    between atoms: C_15  and  C_21 
REMARK   11  A    between atoms: C_27  and  C_34 
ROOT
ATOM      1  O   UNL d   1      -2.751  37.833  24.225  0.00  0.00    -0.306 OA
ATOM      2  O   UNL d   1      -0.369  35.342  24.603  0.00  0.00    -0.306 OA
ATOM      3  O   UNL d   1      -6.434  37.642  24.382  0.00  0.00    -0.338 OA
ATOM      4  C   UNL d   1      -2.064  36.096  24.521  0.00  0.00     0.097 A 
ATOM      5  C   UNL d   1      -0.924  37.712  24.187  0.00  0.00     0.199 A 
ATOM      6  C   UNL d   1      -1.170  36.531  24.412  0.00  0.00     0.231 A 
ATOM      7  C   UNL d   1      -3.521  36.439  24.506  0.00  0.00     0.021 A 
ATOM      8  C   UNL d   1      -1.816  34.640  24.780  0.00  0.00     0.020 A 
ATOM      9  C   UNL d   1      -3.652  37.415  24.332  0.00  0.00     0.085 A 
ATOM     10  C   UNL d   1      -0.830  34.472  24.778  0.00  0.00     0.085 A 
ATOM     11  C   UNL d   1      -4.336  35.807  24.649  0.00  0.00     0.084 A 
ATOM     12  C   UNL d   1      -5.302  36.197  24.609  0.00  0.00     0.012 A 
ATOM     13  C   UNL d   1      -6.151  35.539  24.758  0.00  0.00     0.079 A 
ATOM     14  C   UNL d   1      -5.438  37.214  24.427  0.00  0.00     0.081 A 
ATOM     15  C   UNL d   1      -4.608  37.826  24.288  0.00  0.00     0.075 A 
ATOM     16  C   UNL d   1      -7.158  35.945  24.717  0.00  0.00     0.156 A 
ATOM     17  C   UNL d   1      -7.299  37.003  24.527  0.00  0.00     0.191 A 
ATOM     18  C   UNL d   1      -2.490  33.863  24.944  0.00  0.00     0.078 A 
ATOM     19  C   UNL d   1      -0.450  33.516  24.941  0.00  0.00     0.074 A 
ATOM     20  C   UNL d   1      -2.132  32.898  25.109  0.00  0.00     0.073 A 
ATOM     21  C   UNL d   1      -1.105  32.725  25.107  0.00  0.00     0.071 A 
ENDROOT
BRANCH   6  22
ATOM     22  C   UNL d   1      -0.275  36.965  24.303  0.00  0.00     0.010 A 
ATOM     23  C   UNL d   1       0.201  36.912  23.425  0.00  0.00     0.052 A 
ATOM     24  C   UNL d   1       1.096  37.346  23.316  0.00  0.00     0.099 A 
ATOM     25  C   UNL d   1       1.512  37.832  24.084  0.00  0.00     0.098 A 
ATOM     26  C   UNL d   1       1.035  37.884  24.962  0.00  0.00     0.040 A 
ATOM     27  C   UNL d   1       0.141  37.451  25.071  0.00  0.00     0.015 A 
BRANCH  24  28
ATOM     28  O   UNL d   1       1.573  37.295  22.439  0.00  0.00    -0.358 OA
ATOM     29  H   UNL d   1       1.810  37.808  22.184  0.00  0.00     0.217 HD
ENDBRANCH  24  28
BRANCH  25  30
ATOM     30  O   UNL d   1       2.407  38.267  23.976  0.00  0.00    -0.358 OA
ATOM     31  H   UNL d   1       2.918  37.919  23.928  0.00  0.00     0.217 HD
ENDBRANCH  25  30
ENDBRANCH   6  22
BRANCH   5  32
ATOM     32  O   UNL d   1      -0.607  38.643  24.006  0.00  0.00    -0.389 OA
ATOM     33  H   UNL d   1      -0.381  38.791  23.449  0.00  0.00     0.210 HD
ENDBRANCH   5  32
BRANCH  11  34
ATOM     34  O   UNL d   1      -4.195  34.832  24.823  0.00  0.00    -0.359 OA
ATOM     35  H   UNL d   1      -4.315  34.417  24.379  0.00  0.00     0.217 HD
ENDBRANCH  11  34
BRANCH  18  36
ATOM     36  O   UNL d   1      -3.473  34.042  24.944  0.00  0.00    -0.360 OA
ATOM     37  H   UNL d   1      -3.714  34.450  24.543  0.00  0.00     0.217 HD
ENDBRANCH  18  36
BRANCH  21  38
ATOM     38  O   UNL d   1      -0.751  31.803  25.265  0.00  0.00    -0.361 OA
ATOM     39  H   UNL d   1      -0.147  31.717  25.374  0.00  0.00     0.217 HD
ENDBRANCH  21  38
BRANCH  17  40
ATOM     40  C   UNL d   1      -8.222  37.388  24.487  0.00  0.00    -0.024 A 
ATOM     41  C   UNL d   1      -8.709  37.426  23.615  0.00  0.00     0.049 A 
ATOM     42  C   UNL d   1      -9.632  37.811  23.575  0.00  0.00     0.099 A 
ATOM     43  C   UNL d   1     -10.065  38.158  24.407  0.00  0.00     0.098 A 
ATOM     44  C   UNL d   1      -9.577  38.120  25.279  0.00  0.00     0.040 A 
ATOM     45  C   UNL d   1      -8.655  37.735  25.319  0.00  0.00     0.013 A 
BRANCH  42  46
ATOM     46  O   UNL d   1     -10.121  37.849  22.704  0.00  0.00    -0.358 OA
ATOM     47  H   UNL d   1      -9.836  38.064  22.197  0.00  0.00     0.217 HD
ENDBRANCH  42  46
BRANCH  43  48
ATOM     48  O   UNL d   1     -10.987  38.543  24.367  0.00  0.00    -0.358 OA
ATOM     49  H   UNL d   1     -11.441  38.300  24.715  0.00  0.00     0.217 HD
ENDBRANCH  43  48
ENDBRANCH  17  40
BRANCH  16  50
ATOM     50  O   UNL d   1      -7.946  35.347  24.852  0.00  0.00    -0.392 OA
ATOM     51  H   UNL d   1      -8.518  35.553  24.726  0.00  0.00     0.210 HD
ENDBRANCH  16  50
TORSDOF 11
ENDMDL
