MODEL 1
REMARK VINA RESULT:    -9.344      0.000      0.000
REMARK INTER + INTRA:          -8.740
REMARK INTER:                 -11.018
REMARK INTRA:                   2.278
REMARK UNBOUND:                 2.243
REMARK  5 active torsions:
REMARK  status: ('A' for Active; 'I' for Inactive)
REMARK    1  A    between atoms: O_3  and  C_16 
REMARK    2  A    between atoms: O_4  and  C_17 
REMARK    3  A    between atoms: O_7  and  C_20 
REMARK    4  A    between atoms: O_8  and  C_21 
REMARK    5  A    between atoms: C_9  and  C_16 
ROOT
ATOM      1  O   UNL d   1       1.626   5.421   4.859  0.00  0.00    -0.271 OA
ATOM      2  O   UNL d   1       3.335   5.957   3.494  0.00  0.00    -0.290 OA
ATOM      3  O   UNL d   1       0.204   4.636   5.464  0.00  0.00    -0.259 OA
ATOM      4  C   UNL d   1       3.187   7.257   5.717  0.00  0.00     0.128 A 
ATOM      5  C   UNL d   1       2.397   6.656   5.796  0.00  0.00     0.008 A 
ATOM      6  C   UNL d   1       3.632   7.068   4.848  0.00  0.00     0.106 A 
ATOM      7  C   UNL d   1       2.356   6.094   4.970  0.00  0.00     0.133 A 
ATOM      8  C   UNL d   1       1.708   6.546   6.511  0.00  0.00     0.026 A 
ATOM      9  C   UNL d   1       3.120   6.351   4.387  0.00  0.00     0.184 A 
ATOM     10  C   UNL d   1       0.977   5.872   6.401  0.00  0.00     0.056 A 
ATOM     11  C   UNL d   1       1.765   7.139   7.366  0.00  0.00     0.113 A 
ATOM     12  C   UNL d   1       0.935   5.310   5.575  0.00  0.00     0.299 A 
ATOM     13  C   UNL d   1       0.251   5.745   7.137  0.00  0.00     0.058 A 
ATOM     14  C   UNL d   1       1.049   7.028   8.115  0.00  0.00     0.133 A 
ATOM     15  C   UNL d   1       0.288   6.327   8.000  0.00  0.00     0.102 A 
ENDROOT
BRANCH   4  16
ATOM     16  C   UNL d   1       3.825   7.969   6.008  0.00  0.00     0.148 C 
ATOM     17  O   UNL d   1       4.565   7.747   6.643  0.00  0.00    -0.649 OA
BRANCH  16  18
ATOM     18  O   UNL d   1       3.724   8.902   5.664  0.00  0.00    -0.776 OA
ATOM     19  H   UNL d   1       4.125   9.342   5.837  0.00  0.00     0.167 HD
ENDBRANCH  16  18
ENDBRANCH   4  16
BRANCH  11  20
ATOM     20  O   UNL d   1       2.499   7.808   7.465  0.00  0.00    -0.357 OA
ATOM     21  H   UNL d   1       2.408   8.321   7.802  0.00  0.00     0.217 HD
ENDBRANCH  11  20
BRANCH  14  22
ATOM     22  O   UNL d   1       1.094   7.592   8.939  0.00  0.00    -0.356 OA
ATOM     23  H   UNL d   1       0.830   7.395   9.464  0.00  0.00     0.218 HD
ENDBRANCH  14  22
BRANCH  15  24
ATOM     24  O   UNL d   1      -0.403   6.214   8.713  0.00  0.00    -0.358 OA
ATOM     25  H   UNL d   1      -0.310   5.808   9.173  0.00  0.00     0.217 HD
ENDBRANCH  15  24
TORSDOF 5
ENDMDL
MODEL 2
REMARK VINA RESULT:    -9.084      0.769      3.506
REMARK INTER + INTRA:          -8.433
REMARK INTER:                 -10.723
REMARK INTRA:                   2.289
REMARK UNBOUND:                 2.243
REMARK  5 active torsions:
REMARK  status: ('A' for Active; 'I' for Inactive)
REMARK    1  A    between atoms: O_3  and  C_16 
REMARK    2  A    between atoms: O_4  and  C_17 
REMARK    3  A    between atoms: O_7  and  C_20 
REMARK    4  A    between atoms: O_8  and  C_21 
REMARK    5  A    between atoms: C_9  and  C_16 
ROOT
ATOM      1  O   UNL d   1       1.815   5.574   4.778  0.00  0.00    -0.271 OA
ATOM      2  O   UNL d   1      -0.023   4.626   5.670  0.00  0.00    -0.290 OA
ATOM      3  O   UNL d   1       3.068   5.957   3.643  0.00  0.00    -0.259 OA
ATOM      4  C   UNL d   1       1.231   6.322   7.154  0.00  0.00     0.128 A 
ATOM      5  C   UNL d   1       1.793   6.337   6.333  0.00  0.00     0.008 A 
ATOM      6  C   UNL d   1       0.486   5.682   7.005  0.00  0.00     0.106 A 
ATOM      7  C   UNL d   1       1.391   5.701   5.674  0.00  0.00     0.133 A 
ATOM      8  C   UNL d   1       2.620   6.846   6.096  0.00  0.00     0.026 A 
ATOM      9  C   UNL d   1       0.583   5.299   6.093  0.00  0.00     0.184 A 
ATOM     10  C   UNL d   1       3.045   6.719   5.199  0.00  0.00     0.056 A 
ATOM     11  C   UNL d   1       3.028   7.505   6.792  0.00  0.00     0.113 A 
ATOM     12  C   UNL d   1       2.643   6.084   4.540  0.00  0.00     0.299 A 
ATOM     13  C   UNL d   1       3.907   7.242   4.937  0.00  0.00     0.058 A 
ATOM     14  C   UNL d   1       3.890   8.038   6.551  0.00  0.00     0.133 A 
ATOM     15  C   UNL d   1       4.332   7.906   5.617  0.00  0.00     0.102 A 
ENDROOT
BRANCH   4  16
ATOM     16  C   UNL d   1       0.962   6.582   8.080  0.00  0.00     0.148 C 
ATOM     17  O   UNL d   1       0.452   7.429   8.234  0.00  0.00    -0.649 OA
BRANCH  16  18
ATOM     18  O   UNL d   1       1.202   5.996   8.854  0.00  0.00    -0.776 OA
ATOM     19  H   UNL d   1       0.776   5.619   9.102  0.00  0.00     0.167 HD
ENDBRANCH  16  18
ENDBRANCH   4  16
BRANCH  11  20
ATOM     20  O   UNL d   1       2.595   7.623   7.685  0.00  0.00    -0.357 OA
ATOM     21  H   UNL d   1       2.292   8.148   7.814  0.00  0.00     0.217 HD
ENDBRANCH  11  20
BRANCH  14  22
ATOM     22  O   UNL d   1       4.290   8.673   7.212  0.00  0.00    -0.356 OA
ATOM     23  H   UNL d   1       4.011   8.768   7.757  0.00  0.00     0.218 HD
ENDBRANCH  14  22
BRANCH  15  24
ATOM     24  O   UNL d   1       5.159   8.413   5.377  0.00  0.00    -0.358 OA
ATOM     25  H   UNL d   1       5.117   9.001   5.185  0.00  0.00     0.217 HD
ENDBRANCH  15  24
TORSDOF 5
ENDMDL
MODEL 3
REMARK VINA RESULT:    -8.790      0.844      2.911
REMARK INTER + INTRA:          -8.089
REMARK INTER:                 -10.413
REMARK INTRA:                   2.324
REMARK UNBOUND:                 2.243
REMARK  5 active torsions:
REMARK  status: ('A' for Active; 'I' for Inactive)
REMARK    1  A    between atoms: O_3  and  C_16 
REMARK    2  A    between atoms: O_4  and  C_17 
REMARK    3  A    between atoms: O_7  and  C_20 
REMARK    4  A    between atoms: O_8  and  C_21 
REMARK    5  A    between atoms: C_9  and  C_16 
ROOT
ATOM      1  O   UNL d   1       1.991   7.174   7.370  0.00  0.00    -0.271 OA
ATOM      2  O   UNL d   1       3.962   8.043   6.709  0.00  0.00    -0.290 OA
ATOM      3  O   UNL d   1       0.597   6.845   8.344  0.00  0.00    -0.259 OA
ATOM      4  C   UNL d   1       2.821   6.407   5.075  0.00  0.00     0.128 A 
ATOM      5  C   UNL d   1       2.165   6.415   5.823  0.00  0.00     0.008 A 
ATOM      6  C   UNL d   1       3.570   7.013   5.316  0.00  0.00     0.106 A 
ATOM      7  C   UNL d   1       2.513   7.031   6.530  0.00  0.00     0.133 A 
ATOM      8  C   UNL d   1       1.295   5.942   5.957  0.00  0.00     0.026 A 
ATOM      9  C   UNL d   1       3.382   7.399   6.213  0.00  0.00     0.184 A 
ATOM     10  C   UNL d   1       0.771   6.086   6.798  0.00  0.00     0.056 A 
ATOM     11  C   UNL d   1       0.945   5.303   5.212  0.00  0.00     0.113 A 
ATOM     12  C   UNL d   1       1.120   6.702   7.504  0.00  0.00     0.299 A 
ATOM     13  C   UNL d   1      -0.138   5.600   6.951  0.00  0.00     0.058 A 
ATOM     14  C   UNL d   1       0.038   4.808   5.345  0.00  0.00     0.133 A 
ATOM     15  C   UNL d   1      -0.507   4.957   6.220  0.00  0.00     0.102 A 
ENDROOT
BRANCH   4  16
ATOM     16  C   UNL d   1       3.187   6.137   4.186  0.00  0.00     0.148 C 
ATOM     17  O   UNL d   1       3.101   6.753   3.402  0.00  0.00    -0.649 OA
BRANCH  16  18
ATOM     18  O   UNL d   1       3.640   5.252   4.078  0.00  0.00    -0.776 OA
ATOM     19  H   UNL d   1       4.259   5.221   4.050  0.00  0.00     0.167 HD
ENDBRANCH  16  18
ENDBRANCH   4  16
BRANCH  11  20
ATOM     20  O   UNL d   1       1.475   5.167   4.376  0.00  0.00    -0.357 OA
ATOM     21  H   UNL d   1       1.568   5.642   3.988  0.00  0.00     0.217 HD
ENDBRANCH  11  20
BRANCH  14  22
ATOM     22  O   UNL d   1      -0.307   4.192   4.636  0.00  0.00    -0.356 OA
ATOM     23  H   UNL d   1      -0.572   3.655   4.794  0.00  0.00     0.218 HD
ENDBRANCH  14  22
BRANCH  15  24
ATOM     24  O   UNL d   1      -1.377   4.487   6.357  0.00  0.00    -0.358 OA
ATOM     25  H   UNL d   1      -1.869   4.638   6.011  0.00  0.00     0.217 HD
ENDBRANCH  15  24
TORSDOF 5
ENDMDL
MODEL 4
REMARK VINA RESULT:    -8.755      1.407      2.474
REMARK INTER + INTRA:          -8.048
REMARK INTER:                 -10.286
REMARK INTRA:                   2.238
REMARK UNBOUND:                 2.243
REMARK  5 active torsions:
REMARK  status: ('A' for Active; 'I' for Inactive)
REMARK    1  A    between atoms: O_3  and  C_16 
REMARK    2  A    between atoms: O_4  and  C_17 
REMARK    3  A    between atoms: O_7  and  C_20 
REMARK    4  A    between atoms: O_8  and  C_21 
REMARK    5  A    between atoms: C_9  and  C_16 
ROOT
ATOM      1  O   UNL d   1       4.303   7.131   4.100  0.00  0.00    -0.271 OA
ATOM      2  O   UNL d   1       6.166   8.394   4.052  0.00  0.00    -0.290 OA
ATOM      3  O   UNL d   1       3.055   6.041   3.590  0.00  0.00    -0.259 OA
ATOM      4  C   UNL d   1       4.802   8.440   6.239  0.00  0.00     0.128 A 
ATOM      5  C   UNL d   1       4.256   7.816   5.689  0.00  0.00     0.008 A 
ATOM      6  C   UNL d   1       5.580   8.731   5.694  0.00  0.00     0.106 A 
ATOM      7  C   UNL d   1       4.702   7.722   4.799  0.00  0.00     0.133 A 
ATOM      8  C   UNL d   1       3.411   7.319   5.880  0.00  0.00     0.026 A 
ATOM      9  C   UNL d   1       5.520   8.289   4.806  0.00  0.00     0.184 A 
ATOM     10  C   UNL d   1       3.010   6.727   5.180  0.00  0.00     0.056 A 
ATOM     11  C   UNL d   1       2.957   7.427   6.812  0.00  0.00     0.113 A 
ATOM     12  C   UNL d   1       3.456   6.633   4.290  0.00  0.00     0.299 A 
ATOM     13  C   UNL d   1       2.129   6.202   5.364  0.00  0.00     0.058 A 
ATOM     14  C   UNL d   1       2.075   6.911   7.017  0.00  0.00     0.133 A 
ATOM     15  C   UNL d   1       1.659   6.295   6.288  0.00  0.00     0.102 A 
ENDROOT
BRANCH   4  16
ATOM     16  C   UNL d   1       5.040   8.971   7.052  0.00  0.00     0.148 C 
ATOM     17  O   UNL d   1       5.584   8.554   7.780  0.00  0.00    -0.649 OA
BRANCH  16  18
ATOM     18  O   UNL d   1       4.734   9.918   7.138  0.00  0.00    -0.776 OA
ATOM     19  H   UNL d   1       4.746  10.295   6.645  0.00  0.00     0.167 HD
ENDBRANCH  16  18
ENDBRANCH   4  16
BRANCH  11  20
ATOM     20  O   UNL d   1       3.366   8.021   7.504  0.00  0.00    -0.357 OA
ATOM     21  H   UNL d   1       3.144   8.021   8.083  0.00  0.00     0.217 HD
ENDBRANCH  11  20
BRANCH  14  22
ATOM     22  O   UNL d   1       1.632   7.008   7.908  0.00  0.00    -0.356 OA
ATOM     23  H   UNL d   1       1.188   6.611   8.078  0.00  0.00     0.218 HD
ENDBRANCH  14  22
BRANCH  15  24
ATOM     24  O   UNL d   1       0.813   5.797   6.475  0.00  0.00    -0.358 OA
ATOM     25  H   UNL d   1       0.827   5.182   6.558  0.00  0.00     0.217 HD
ENDBRANCH  15  24
TORSDOF 5
ENDMDL
MODEL 5
REMARK VINA RESULT:    -8.566      1.094      3.298
REMARK INTER + INTRA:          -7.825
REMARK INTER:                 -10.144
REMARK INTRA:                   2.319
REMARK UNBOUND:                 2.243
REMARK  5 active torsions:
REMARK  status: ('A' for Active; 'I' for Inactive)
REMARK    1  A    between atoms: O_3  and  C_16 
REMARK    2  A    between atoms: O_4  and  C_17 
REMARK    3  A    between atoms: O_7  and  C_20 
REMARK    4  A    between atoms: O_8  and  C_21 
REMARK    5  A    between atoms: C_9  and  C_16 
ROOT
ATOM      1  O   UNL d   1       2.988   6.527   5.217  0.00  0.00    -0.271 OA
ATOM      2  O   UNL d   1       3.810   7.889   6.812  0.00  0.00    -0.290 OA
ATOM      3  O   UNL d   1       2.851   5.658   3.724  0.00  0.00    -0.259 OA
ATOM      4  C   UNL d   1       1.569   6.725   7.336  0.00  0.00     0.128 A 
ATOM      5  C   UNL d   1       1.758   6.370   6.426  0.00  0.00     0.008 A 
ATOM      6  C   UNL d   1       2.312   7.335   7.589  0.00  0.00     0.106 A 
ATOM      7  C   UNL d   1       2.624   6.764   6.117  0.00  0.00     0.133 A 
ATOM      8  C   UNL d   1       1.257   5.740   5.835  0.00  0.00     0.026 A 
ATOM      9  C   UNL d   1       2.963   7.360   6.838  0.00  0.00     0.184 A 
ATOM     10  C   UNL d   1       1.621   5.502   4.934  0.00  0.00     0.056 A 
ATOM     11  C   UNL d   1       0.356   5.337   6.171  0.00  0.00     0.113 A 
ATOM     12  C   UNL d   1       2.487   5.895   4.625  0.00  0.00     0.299 A 
ATOM     13  C   UNL d   1       1.110   4.845   4.307  0.00  0.00     0.058 A 
ATOM     14  C   UNL d   1      -0.171   4.679   5.559  0.00  0.00     0.133 A 
ATOM     15  C   UNL d   1       0.208   4.431   4.621  0.00  0.00     0.102 A 
ENDROOT
BRANCH   4  16
ATOM     16  C   UNL d   1       1.051   6.836   8.183  0.00  0.00     0.148 C 
ATOM     17  O   UNL d   1       0.488   7.651   8.322  0.00  0.00    -0.649 OA
BRANCH  16  18
ATOM     18  O   UNL d   1       1.094   6.133   8.891  0.00  0.00    -0.776 OA
ATOM     19  H   UNL d   1       1.296   6.277   9.460  0.00  0.00     0.167 HD
ENDBRANCH  16  18
ENDBRANCH   4  16
BRANCH  11  20
ATOM     20  O   UNL d   1       0.002   5.582   7.072  0.00  0.00    -0.357 OA
ATOM     21  H   UNL d   1       0.393   5.740   7.526  0.00  0.00     0.217 HD
ENDBRANCH  11  20
BRANCH  14  22
ATOM     22  O   UNL d   1      -1.037   4.287   5.872  0.00  0.00    -0.356 OA
ATOM     23  H   UNL d   1      -1.046   3.727   6.136  0.00  0.00     0.218 HD
ENDBRANCH  14  22
BRANCH  15  24
ATOM     24  O   UNL d   1      -0.291   3.801   4.028  0.00  0.00    -0.358 OA
ATOM     25  H   UNL d   1      -0.579   4.014   3.522  0.00  0.00     0.217 HD
ENDBRANCH  15  24
TORSDOF 5
ENDMDL
