MODEL 1
REMARK VINA RESULT:    -6.874      0.000      0.000
REMARK INTER + INTRA:          -6.384
REMARK INTER:                  -8.239
REMARK INTRA:                   1.855
REMARK UNBOUND:                 1.896
REMARK  5 active torsions:
REMARK  status: ('A' for Active; 'I' for Inactive)
REMARK    1  A    between atoms: O_2  and  C_13 
REMARK    2  A    between atoms: O_3  and  C_19 
REMARK    3  A    between atoms: O_5  and  C_17 
REMARK    4  A    between atoms: O_6  and  C_21 
REMARK    5  A    between atoms: C_8  and  C_10 
ROOT
ATOM      1  O   UNL d   1       0.559   9.614  -3.633  0.00  0.00    -0.309 OA
ATOM      2  O   UNL d   1       2.059  11.450  -5.471  0.00  0.00    -0.287 OA
ATOM      3  C   UNL d   1       1.736  10.862  -3.875  0.00  0.00     0.081 A 
ATOM      4  C   UNL d   1       0.382   9.590  -4.617  0.00  0.00     0.090 A 
ATOM      5  C   UNL d   1       1.236  10.250  -3.262  0.00  0.00     0.095 A 
ATOM      6  C   UNL d   1       1.559  10.838  -4.859  0.00  0.00     0.190 A 
ATOM      7  C   UNL d   1       0.882  10.202  -5.230  0.00  0.00     0.094 A 
ATOM      8  C   UNL d   1       2.443  11.529  -3.503  0.00  0.00     0.085 A 
ATOM      9  C   UNL d   1       1.409  10.263  -2.234  0.00  0.00     0.075 A 
ATOM     10  C   UNL d   1       2.112  10.923  -1.841  0.00  0.00     0.071 A 
ATOM     11  C   UNL d   1       2.633  11.560  -2.479  0.00  0.00     0.074 A 
ENDROOT
BRANCH   4  12
ATOM     12  C   UNL d   1      -0.294   8.954  -4.988  0.00  0.00     0.001 A 
ATOM     13  C   UNL d   1       0.004   8.158  -5.515  0.00  0.00     0.054 A 
ATOM     14  C   UNL d   1      -0.673   7.522  -5.886  0.00  0.00     0.102 A 
ATOM     15  C   UNL d   1      -1.648   7.682  -5.730  0.00  0.00     0.099 A 
ATOM     16  C   UNL d   1      -1.946   8.478  -5.203  0.00  0.00     0.040 A 
ATOM     17  C   UNL d   1      -1.269   9.114  -4.832  0.00  0.00     0.017 A 
BRANCH  14  18
ATOM     18  O   UNL d   1      -0.375   6.726  -6.413  0.00  0.00    -0.353 OA
ATOM     19  C   UNL d   1       0.598   6.502  -6.474  0.00  0.00     0.210 C 
ENDBRANCH  14  18
BRANCH  15  20
ATOM     20  O   UNL d   1      -2.324   7.046  -6.101  0.00  0.00    -0.358 OA
ATOM     21  H   UNL d   1      -2.640   7.193  -6.614  0.00  0.00     0.217 HD
ENDBRANCH  15  20
ENDBRANCH   4  12
BRANCH   8  22
ATOM     22  O   UNL d   1       2.937  12.136  -4.125  0.00  0.00    -0.360 OA
ATOM     23  H   UNL d   1       3.466  12.403  -3.942  0.00  0.00     0.217 HD
ENDBRANCH   8  22
BRANCH  10  24
ATOM     24  O   UNL d   1       2.286  10.943  -0.856  0.00  0.00    -0.361 OA
ATOM     25  H   UNL d   1       2.848  11.097  -0.644  0.00  0.00     0.217 HD
ENDBRANCH  10  24
TORSDOF 5
ENDMDL
MODEL 2
REMARK VINA RESULT:    -6.500     12.686     13.912
REMARK INTER + INTRA:          -5.934
REMARK INTER:                  -7.795
REMARK INTRA:                   1.860
REMARK UNBOUND:                 1.896
REMARK  5 active torsions:
REMARK  status: ('A' for Active; 'I' for Inactive)
REMARK    1  A    between atoms: O_2  and  C_13 
REMARK    2  A    between atoms: O_3  and  C_19 
REMARK    3  A    between atoms: O_5  and  C_17 
REMARK    4  A    between atoms: O_6  and  C_21 
REMARK    5  A    between atoms: C_8  and  C_10 
ROOT
ATOM      1  O   UNL d   1      -4.400   5.956   8.224  0.00  0.00    -0.309 OA
ATOM      2  O   UNL d   1      -1.982   6.108   6.455  0.00  0.00    -0.287 OA
ATOM      3  C   UNL d   1      -2.958   6.774   7.721  0.00  0.00     0.081 A 
ATOM      4  C   UNL d   1      -4.230   5.240   7.548  0.00  0.00     0.090 A 
ATOM      5  C   UNL d   1      -3.764   6.723   8.311  0.00  0.00     0.095 A 
ATOM      6  C   UNL d   1      -2.788   6.057   7.045  0.00  0.00     0.190 A 
ATOM      7  C   UNL d   1      -3.424   5.290   6.958  0.00  0.00     0.094 A 
ATOM      8  C   UNL d   1      -2.288   7.566   7.800  0.00  0.00     0.085 A 
ATOM      9  C   UNL d   1      -3.956   7.462   9.020  0.00  0.00     0.075 A 
ATOM     10  C   UNL d   1      -3.298   8.264   9.117  0.00  0.00     0.071 A 
ATOM     11  C   UNL d   1      -2.459   8.316   8.503  0.00  0.00     0.074 A 
ENDROOT
BRANCH   4  12
ATOM     12  C   UNL d   1      -4.865   4.472   7.461  0.00  0.00     0.001 A 
ATOM     13  C   UNL d   1      -4.868   3.745   8.147  0.00  0.00     0.054 A 
ATOM     14  C   UNL d   1      -5.504   2.978   8.060  0.00  0.00     0.102 A 
ATOM     15  C   UNL d   1      -6.136   2.938   7.287  0.00  0.00     0.099 A 
ATOM     16  C   UNL d   1      -6.134   3.665   6.601  0.00  0.00     0.040 A 
ATOM     17  C   UNL d   1      -5.498   4.433   6.687  0.00  0.00     0.017 A 
BRANCH  14  18
ATOM     18  O   UNL d   1      -5.507   2.251   8.747  0.00  0.00    -0.353 OA
ATOM     19  C   UNL d   1      -4.723   2.136   9.357  0.00  0.00     0.210 C 
ENDBRANCH  14  18
BRANCH  15  20
ATOM     20  O   UNL d   1      -6.772   2.171   7.200  0.00  0.00    -0.358 OA
ATOM     21  H   UNL d   1      -6.604   1.663   6.887  0.00  0.00     0.217 HD
ENDBRANCH  15  20
ENDBRANCH   4  12
BRANCH   8  22
ATOM     22  O   UNL d   1      -1.485   7.607   7.205  0.00  0.00    -0.360 OA
ATOM     23  H   UNL d   1      -1.305   7.103   6.894  0.00  0.00     0.217 HD
ENDBRANCH   8  22
BRANCH  10  24
ATOM     24  O   UNL d   1      -3.472   8.978   9.795  0.00  0.00    -0.361 OA
ATOM     25  H   UNL d   1      -3.653   8.824  10.367  0.00  0.00     0.217 HD
ENDBRANCH  10  24
TORSDOF 5
ENDMDL
MODEL 3
REMARK VINA RESULT:    -6.364     11.840     13.050
REMARK INTER + INTRA:          -5.770
REMARK INTER:                  -7.608
REMARK INTRA:                   1.839
REMARK UNBOUND:                 1.896
REMARK  5 active torsions:
REMARK  status: ('A' for Active; 'I' for Inactive)
REMARK    1  A    between atoms: O_2  and  C_13 
REMARK    2  A    between atoms: O_3  and  C_19 
REMARK    3  A    between atoms: O_5  and  C_17 
REMARK    4  A    between atoms: O_6  and  C_21 
REMARK    5  A    between atoms: C_8  and  C_10 
ROOT
ATOM      1  O   UNL d   1      -4.834   6.318   6.806  0.00  0.00    -0.309 OA
ATOM      2  O   UNL d   1      -1.876   6.128   6.341  0.00  0.00    -0.287 OA
ATOM      3  C   UNL d   1      -3.336   7.060   6.352  0.00  0.00     0.081 A 
ATOM      4  C   UNL d   1      -4.359   5.449   6.951  0.00  0.00     0.090 A 
ATOM      5  C   UNL d   1      -4.322   7.123   6.507  0.00  0.00     0.095 A 
ATOM      6  C   UNL d   1      -2.862   6.192   6.496  0.00  0.00     0.190 A 
ATOM      7  C   UNL d   1      -3.373   5.386   6.796  0.00  0.00     0.094 A 
ATOM      8  C   UNL d   1      -2.790   7.890   6.040  0.00  0.00     0.085 A 
ATOM      9  C   UNL d   1      -4.830   8.021   6.361  0.00  0.00     0.075 A 
ATOM     10  C   UNL d   1      -4.304   8.864   6.049  0.00  0.00     0.071 A 
ATOM     11  C   UNL d   1      -3.277   8.798   5.888  0.00  0.00     0.074 A 
ENDROOT
BRANCH   4  12
ATOM     12  C   UNL d   1      -4.871   4.644   7.250  0.00  0.00     0.001 A 
ATOM     13  C   UNL d   1      -5.396   4.110   6.587  0.00  0.00     0.054 A 
ATOM     14  C   UNL d   1      -5.907   3.305   6.887  0.00  0.00     0.102 A 
ATOM     15  C   UNL d   1      -5.894   3.034   7.849  0.00  0.00     0.099 A 
ATOM     16  C   UNL d   1      -5.370   3.568   8.512  0.00  0.00     0.040 A 
ATOM     17  C   UNL d   1      -4.858   4.373   8.213  0.00  0.00     0.017 A 
BRANCH  14  18
ATOM     18  O   UNL d   1      -6.432   2.771   6.224  0.00  0.00    -0.353 OA
ATOM     19  C   UNL d   1      -6.346   2.964   5.246  0.00  0.00     0.210 C 
ENDBRANCH  14  18
BRANCH  15  20
ATOM     20  O   UNL d   1      -6.406   2.228   8.148  0.00  0.00    -0.358 OA
ATOM     21  H   UNL d   1      -6.957   2.296   8.424  0.00  0.00     0.217 HD
ENDBRANCH  15  20
ENDBRANCH   4  12
BRANCH   8  22
ATOM     22  O   UNL d   1      -1.805   7.815   5.888  0.00  0.00    -0.360 OA
ATOM     23  H   UNL d   1      -1.475   7.392   6.197  0.00  0.00     0.217 HD
ENDBRANCH   8  22
BRANCH  10  24
ATOM     24  O   UNL d   1      -4.782   9.731   5.906  0.00  0.00    -0.361 OA
ATOM     25  H   UNL d   1      -4.658  10.074   5.405  0.00  0.00     0.217 HD
ENDBRANCH  10  24
TORSDOF 5
ENDMDL
MODEL 4
REMARK VINA RESULT:    -6.327     11.049     12.624
REMARK INTER + INTRA:          -5.726
REMARK INTER:                  -7.585
REMARK INTRA:                   1.859
REMARK UNBOUND:                 1.896
REMARK  5 active torsions:
REMARK  status: ('A' for Active; 'I' for Inactive)
REMARK    1  A    between atoms: O_2  and  C_13 
REMARK    2  A    between atoms: O_3  and  C_19 
REMARK    3  A    between atoms: O_5  and  C_17 
REMARK    4  A    between atoms: O_6  and  C_21 
REMARK    5  A    between atoms: C_8  and  C_10 
ROOT
ATOM      1  O   UNL d   1      -2.905   6.743   6.198  0.00  0.00    -0.309 OA
ATOM      2  O   UNL d   1      -2.062   8.340   8.594  0.00  0.00    -0.287 OA
ATOM      3  C   UNL d   1      -1.949   8.007   6.898  0.00  0.00     0.081 A 
ATOM      4  C   UNL d   1      -3.299   6.544   7.096  0.00  0.00     0.090 A 
ATOM      5  C   UNL d   1      -2.230   7.474   6.099  0.00  0.00     0.095 A 
ATOM      6  C   UNL d   1      -2.343   7.808   7.795  0.00  0.00     0.190 A 
ATOM      7  C   UNL d   1      -3.018   7.077   7.894  0.00  0.00     0.094 A 
ATOM      8  C   UNL d   1      -1.247   8.771   6.810  0.00  0.00     0.085 A 
ATOM      9  C   UNL d   1      -1.829   7.669   5.158  0.00  0.00     0.075 A 
ATOM     10  C   UNL d   1      -1.125   8.429   5.047  0.00  0.00     0.071 A 
ATOM     11  C   UNL d   1      -0.832   8.983   5.879  0.00  0.00     0.074 A 
ENDROOT
BRANCH   4  12
ATOM     12  C   UNL d   1      -3.974   5.813   7.195  0.00  0.00     0.001 A 
ATOM     13  C   UNL d   1      -4.934   6.038   7.365  0.00  0.00     0.054 A 
ATOM     14  C   UNL d   1      -5.609   5.307   7.464  0.00  0.00     0.102 A 
ATOM     15  C   UNL d   1      -5.324   4.351   7.392  0.00  0.00     0.099 A 
ATOM     16  C   UNL d   1      -4.365   4.126   7.222  0.00  0.00     0.040 A 
ATOM     17  C   UNL d   1      -3.690   4.857   7.123  0.00  0.00     0.017 A 
BRANCH  14  18
ATOM     18  O   UNL d   1      -6.568   5.532   7.634  0.00  0.00    -0.353 OA
ATOM     19  C   UNL d   1      -6.827   6.468   7.875  0.00  0.00     0.210 C 
ENDBRANCH  14  18
BRANCH  15  20
ATOM     20  O   UNL d   1      -5.999   3.620   7.491  0.00  0.00    -0.358 OA
ATOM     21  H   UNL d   1      -6.071   3.336   8.038  0.00  0.00     0.217 HD
ENDBRANCH  15  20
ENDBRANCH   4  12
BRANCH   8  22
ATOM     22  O   UNL d   1      -0.973   9.297   7.615  0.00  0.00    -0.360 OA
ATOM     23  H   UNL d   1      -1.281   9.812   7.768  0.00  0.00     0.217 HD
ENDBRANCH   8  22
BRANCH  10  24
ATOM     24  O   UNL d   1      -0.733   8.625   4.148  0.00  0.00    -0.361 OA
ATOM     25  H   UNL d   1      -0.502   8.163   3.804  0.00  0.00     0.217 HD
ENDBRANCH  10  24
TORSDOF 5
ENDMDL
MODEL 5
REMARK VINA RESULT:    -6.317     10.219     11.844
REMARK INTER + INTRA:          -5.714
REMARK INTER:                  -7.556
REMARK INTRA:                   1.842
REMARK UNBOUND:                 1.896
REMARK  5 active torsions:
REMARK  status: ('A' for Active; 'I' for Inactive)
REMARK    1  A    between atoms: O_2  and  C_13 
REMARK    2  A    between atoms: O_3  and  C_19 
REMARK    3  A    between atoms: O_5  and  C_17 
REMARK    4  A    between atoms: O_6  and  C_21 
REMARK    5  A    between atoms: C_8  and  C_10 
ROOT
ATOM      1  O   UNL d   1      -2.093   7.800   7.182  0.00  0.00    -0.309 OA
ATOM      2  O   UNL d   1      -1.255   8.184   4.327  0.00  0.00    -0.287 OA
ATOM      3  C   UNL d   1      -1.109   8.599   6.002  0.00  0.00     0.081 A 
ATOM      4  C   UNL d   1      -2.519   7.256   6.458  0.00  0.00     0.090 A 
ATOM      5  C   UNL d   1      -1.388   8.471   6.954  0.00  0.00     0.095 A 
ATOM      6  C   UNL d   1      -1.534   8.056   5.279  0.00  0.00     0.190 A 
ATOM      7  C   UNL d   1      -2.239   7.384   5.507  0.00  0.00     0.094 A 
ATOM      8  C   UNL d   1      -0.376   9.295   5.750  0.00  0.00     0.085 A 
ATOM      9  C   UNL d   1      -0.954   9.030   7.719  0.00  0.00     0.075 A 
ATOM     10  C   UNL d   1      -0.219   9.731   7.489  0.00  0.00     0.071 A 
ATOM     11  C   UNL d   1       0.072   9.864   6.498  0.00  0.00     0.074 A 
ENDROOT
BRANCH   4  12
ATOM     12  C   UNL d   1      -3.223   6.584   6.687  0.00  0.00     0.001 A 
ATOM     13  C   UNL d   1      -4.161   6.884   6.865  0.00  0.00     0.054 A 
ATOM     14  C   UNL d   1      -4.866   6.213   7.093  0.00  0.00     0.102 A 
ATOM     15  C   UNL d   1      -4.633   5.241   7.143  0.00  0.00     0.099 A 
ATOM     16  C   UNL d   1      -3.696   4.942   6.965  0.00  0.00     0.040 A 
ATOM     17  C   UNL d   1      -2.991   5.613   6.737  0.00  0.00     0.017 A 
BRANCH  14  18
ATOM     18  O   UNL d   1      -5.803   6.513   7.271  0.00  0.00    -0.353 OA
ATOM     19  C   UNL d   1      -5.997   7.481   7.427  0.00  0.00     0.210 C 
ENDBRANCH  14  18
BRANCH  15  20
ATOM     20  O   UNL d   1      -5.338   4.570   7.371  0.00  0.00    -0.358 OA
ATOM     21  H   UNL d   1      -5.929   4.674   7.212  0.00  0.00     0.217 HD
ENDBRANCH  15  20
ENDBRANCH   4  12
BRANCH   8  22
ATOM     22  O   UNL d   1      -0.104   9.414   4.795  0.00  0.00    -0.360 OA
ATOM     23  H   UNL d   1       0.481   9.306   4.624  0.00  0.00     0.217 HD
ENDBRANCH   8  22
BRANCH  10  24
ATOM     24  O   UNL d   1       0.204  10.273   8.215  0.00  0.00    -0.361 OA
ATOM     25  H   UNL d   1       0.499   9.989   8.681  0.00  0.00     0.217 HD
ENDBRANCH  10  24
TORSDOF 5
ENDMDL
