MODEL 1
REMARK VINA RESULT:   -10.903      0.000      0.000
REMARK INTER + INTRA:         -12.136
REMARK INTER:                 -13.459
REMARK INTRA:                   1.324
REMARK UNBOUND:                 1.317
REMARK  6 active torsions:
REMARK  status: ('A' for Active; 'I' for Inactive)
REMARK    1  A    between atoms: C_22  and  O_1 
REMARK    2  A    between atoms: C_24  and  O_2 
REMARK    3  A    between atoms: O_3  and  C_30 
REMARK    4  A    between atoms: O_4  and  C_33 
REMARK    5  A    between atoms: C_14  and  C_30 
REMARK    6  A    between atoms: C_19  and  C_33 
ROOT
ATOM      1  C   UNL d   1      -5.287   9.375   5.840  0.00  0.00    -0.028 A 
ATOM      2  C   UNL d   1      -5.166   8.534   6.367  0.00  0.00     0.007 A 
ATOM      3  C   UNL d   1      -4.256   8.027   6.364  0.00  0.00    -0.033 A 
ATOM      4  C   UNL d   1      -6.167   9.850   5.851  0.00  0.00    -0.013 A 
ATOM      5  C   UNL d   1      -3.461   8.402   5.806  0.00  0.00     0.007 A 
ATOM      6  C   UNL d   1      -4.506   9.768   5.274  0.00  0.00     0.011 A 
ATOM      7  C   UNL d   1      -6.926   9.485   6.390  0.00  0.00    -0.069 A 
ATOM      8  C   UNL d   1      -3.587   9.278   5.257  0.00  0.00     0.007 A 
ATOM      9  C   UNL d   1      -2.503   7.892   5.788  0.00  0.00     0.010 A 
ATOM     10  C   UNL d   1      -7.848   9.969   6.412  0.00  0.00     0.038 A 
ATOM     11  C   UNL d   1      -5.925   8.168   6.905  0.00  0.00     0.033 A 
ATOM     12  C   UNL d   1      -4.149   7.116   6.944  0.00  0.00     0.044 A 
ATOM     13  C   UNL d   1      -6.277  10.726   5.297  0.00  0.00     0.016 A 
ATOM     14  C   UNL d   1      -7.981  10.845   5.865  0.00  0.00     0.053 A 
ATOM     15  C   UNL d   1      -5.077  10.144   5.236  0.00  0.00     0.016 C 
ATOM     16  C   UNL d   1      -7.190  11.226   5.304  0.00  0.00     0.022 A 
ATOM     17  C   UNL d   1      -2.372   6.979   6.360  0.00  0.00     0.157 A 
ATOM     18  C   UNL d   1      -6.805   8.643   6.917  0.00  0.00    -0.022 A 
ATOM     19  C   UNL d   1      -3.201   6.589   6.942  0.00  0.00     0.148 A 
ATOM     20  C   UNL d   1      -5.020   7.668   6.900  0.00  0.00     0.016 C 
ATOM     21  C   UNL d   1      -5.651  10.454   5.243  0.00  0.00     0.021 C 
ATOM     22  C   UNL d   1      -8.656   9.553   7.003  0.00  0.00    -0.005 A 
ATOM     23  C   UNL d   1      -8.932  11.367   5.873  0.00  0.00     0.021 A 
ATOM     24  C   UNL d   1      -9.617  10.057   7.026  0.00  0.00    -0.014 A 
ATOM     25  C   UNL d   1      -2.138   8.591   5.173  0.00  0.00     0.020 C 
ATOM     26  C   UNL d   1      -9.756  10.970   6.457  0.00  0.00     0.006 A 
ATOM     27  C   UNL d   1      -8.518   8.710   7.524  0.00  0.00     0.011 C 
ATOM     28  C   UNL d   1     -10.369   9.682   7.568  0.00  0.00     0.010 C 
ENDROOT
BRANCH   9  29
ATOM     29  C   UNL d   1      -1.558   7.832   5.468  0.00  0.00     0.176 C 
BRANCH  29  30
ATOM     30  O   UNL d   1      -1.307   8.206   4.576  0.00  0.00    -0.400 OA
ATOM     31  H   UNL d   1      -1.337   7.849   4.070  0.00  0.00     0.209 HD
ENDBRANCH  29  30
ENDBRANCH   9  29
BRANCH  17  32
ATOM     32  O   UNL d   1      -1.495   6.501   6.351  0.00  0.00    -0.392 OA
ATOM     33  H   UNL d   1      -0.981   6.790   6.544  0.00  0.00     0.210 HD
ENDBRANCH  17  32
BRANCH  19  34
ATOM     34  O   UNL d   1      -3.091   5.748   7.472  0.00  0.00    -0.393 OA
ATOM     35  H   UNL d   1      -3.590   5.453   7.692  0.00  0.00     0.210 HD
ENDBRANCH  19  34
BRANCH  14  36
ATOM     36  C   UNL d   1      -8.109  11.687   5.341  0.00  0.00     0.149 C 
ATOM     37  O   UNL d   1      -8.446  11.643   4.400  0.00  0.00    -0.649 OA
BRANCH  36  38
ATOM     38  O   UNL d   1      -7.902  12.572   5.757  0.00  0.00    -0.776 OA
ATOM     39  H   UNL d   1      -7.832  12.618   6.371  0.00  0.00     0.167 HD
ENDBRANCH  36  38
ENDBRANCH  14  36
TORSDOF 6
ENDMDL
MODEL 2
REMARK VINA RESULT:   -10.749      2.776      5.546
REMARK INTER + INTRA:         -11.946
REMARK INTER:                 -13.262
REMARK INTRA:                   1.316
REMARK UNBOUND:                 1.317
REMARK  6 active torsions:
REMARK  status: ('A' for Active; 'I' for Inactive)
REMARK    1  A    between atoms: C_22  and  O_1 
REMARK    2  A    between atoms: C_24  and  O_2 
REMARK    3  A    between atoms: O_3  and  C_30 
REMARK    4  A    between atoms: O_4  and  C_33 
REMARK    5  A    between atoms: C_14  and  C_30 
REMARK    6  A    between atoms: C_19  and  C_33 
ROOT
ATOM      1  C   UNL d   1      -4.363   5.677   7.264  0.00  0.00    -0.028 A 
ATOM      2  C   UNL d   1      -5.296   5.690   7.622  0.00  0.00     0.007 A 
ATOM      3  C   UNL d   1      -5.688   4.866   8.125  0.00  0.00    -0.033 A 
ATOM      4  C   UNL d   1      -4.000   6.476   6.784  0.00  0.00    -0.013 A 
ATOM      5  C   UNL d   1      -5.100   4.017   8.256  0.00  0.00     0.007 A 
ATOM      6  C   UNL d   1      -3.756   4.839   7.384  0.00  0.00     0.011 A 
ATOM      7  C   UNL d   1      -4.571   7.287   6.661  0.00  0.00    -0.069 A 
ATOM      8  C   UNL d   1      -4.127   4.003   7.883  0.00  0.00     0.007 A 
ATOM      9  C   UNL d   1      -5.486   3.146   8.776  0.00  0.00     0.010 A 
ATOM     10  C   UNL d   1      -4.207   8.127   6.163  0.00  0.00     0.038 A 
ATOM     11  C   UNL d   1      -5.867   6.502   7.500  0.00  0.00     0.033 A 
ATOM     12  C   UNL d   1      -6.704   4.904   8.504  0.00  0.00     0.044 A 
ATOM     13  C   UNL d   1      -3.025   6.447   6.416  0.00  0.00     0.016 A 
ATOM     14  C   UNL d   1      -3.236   8.121   5.788  0.00  0.00     0.053 A 
ATOM     15  C   UNL d   1      -3.444   5.347   7.046  0.00  0.00     0.016 C 
ATOM     16  C   UNL d   1      -2.641   7.275   5.915  0.00  0.00     0.022 A 
ATOM     17  C   UNL d   1      -6.498   3.161   9.164  0.00  0.00     0.157 A 
ATOM     18  C   UNL d   1      -5.504   7.301   7.020  0.00  0.00    -0.022 A 
ATOM     19  C   UNL d   1      -7.112   4.045   9.028  0.00  0.00     0.148 A 
ATOM     20  C   UNL d   1      -6.253   5.682   7.999  0.00  0.00     0.016 C 
ATOM     21  C   UNL d   1      -3.207   5.868   6.733  0.00  0.00     0.021 C 
ATOM     22  C   UNL d   1      -4.845   8.996   6.043  0.00  0.00    -0.005 A 
ATOM     23  C   UNL d   1      -2.835   8.983   5.265  0.00  0.00     0.021 A 
ATOM     24  C   UNL d   1      -4.466   9.870   5.524  0.00  0.00    -0.014 A 
ATOM     25  C   UNL d   1      -4.616   2.674   8.638  0.00  0.00     0.020 C 
ATOM     26  C   UNL d   1      -3.454   9.864   5.133  0.00  0.00     0.006 A 
ATOM     27  C   UNL d   1      -5.777   8.992   6.408  0.00  0.00     0.011 C 
ATOM     28  C   UNL d   1      -5.046  10.677   5.408  0.00  0.00     0.010 C 
ENDROOT
BRANCH   9  29
ATOM     29  C   UNL d   1      -5.362   2.217   9.122  0.00  0.00     0.176 C 
BRANCH  29  30
ATOM     30  O   UNL d   1      -4.445   1.880   9.334  0.00  0.00    -0.400 OA
ATOM     31  H   UNL d   1      -3.949   2.139   9.065  0.00  0.00     0.209 HD
ENDBRANCH  29  30
ENDBRANCH   9  29
BRANCH  17  32
ATOM     32  O   UNL d   1      -6.865   2.365   9.645  0.00  0.00    -0.392 OA
ATOM     33  H   UNL d   1      -6.788   2.309  10.258  0.00  0.00     0.210 HD
ENDBRANCH  17  32
BRANCH  19  34
ATOM     34  O   UNL d   1      -8.046   4.069   9.382  0.00  0.00    -0.393 OA
ATOM     35  H   UNL d   1      -8.329   4.613   9.474  0.00  0.00     0.210 HD
ENDBRANCH  19  34
BRANCH  14  36
ATOM     36  C   UNL d   1      -2.303   8.115   5.427  0.00  0.00     0.149 C 
ATOM     37  O   UNL d   1      -1.541   8.398   6.009  0.00  0.00    -0.649 OA
BRANCH  36  38
ATOM     38  O   UNL d   1      -2.133   7.826   4.485  0.00  0.00    -0.776 OA
ATOM     39  H   UNL d   1      -1.756   8.159   4.122  0.00  0.00     0.167 HD
ENDBRANCH  36  38
ENDBRANCH  14  36
TORSDOF 6
ENDMDL
MODEL 3
REMARK VINA RESULT:   -10.524      1.029      5.776
REMARK INTER + INTRA:         -11.667
REMARK INTER:                 -13.098
REMARK INTRA:                   1.431
REMARK UNBOUND:                 1.317
REMARK  6 active torsions:
REMARK  status: ('A' for Active; 'I' for Inactive)
REMARK    1  A    between atoms: C_22  and  O_1 
REMARK    2  A    between atoms: C_24  and  O_2 
REMARK    3  A    between atoms: O_3  and  C_30 
REMARK    4  A    between atoms: O_4  and  C_33 
REMARK    5  A    between atoms: C_14  and  C_30 
REMARK    6  A    between atoms: C_19  and  C_33 
ROOT
ATOM      1  C   UNL d   1      -6.027   9.829   5.844  0.00  0.00    -0.028 A 
ATOM      2  C   UNL d   1      -6.781   9.440   6.373  0.00  0.00     0.007 A 
ATOM      3  C   UNL d   1      -7.710   9.910   6.406  0.00  0.00    -0.033 A 
ATOM      4  C   UNL d   1      -5.141   9.367   5.821  0.00  0.00    -0.013 A 
ATOM      5  C   UNL d   1      -7.856  10.797   5.881  0.00  0.00     0.007 A 
ATOM      6  C   UNL d   1      -6.150  10.715   5.311  0.00  0.00     0.011 A 
ATOM      7  C   UNL d   1      -5.009   8.515   6.328  0.00  0.00    -0.069 A 
ATOM      8  C   UNL d   1      -7.071  11.203   5.329  0.00  0.00     0.007 A 
ATOM      9  C   UNL d   1      -8.815  11.305   5.900  0.00  0.00     0.010 A 
ATOM     10  C   UNL d   1      -4.091   8.021   6.314  0.00  0.00     0.038 A 
ATOM     11  C   UNL d   1      -6.649   8.588   6.880  0.00  0.00     0.033 A 
ATOM     12  C   UNL d   1      -8.513   9.469   6.987  0.00  0.00     0.044 A 
ATOM     13  C   UNL d   1      -4.365   9.785   5.265  0.00  0.00     0.016 A 
ATOM     14  C   UNL d   1      -3.301   8.421   5.765  0.00  0.00     0.053 A 
ATOM     15  C   UNL d   1      -5.520  10.454   5.250  0.00  0.00     0.016 C 
ATOM     16  C   UNL d   1      -3.439   9.308   5.237  0.00  0.00     0.022 A 
ATOM     17  C   UNL d   1      -9.632  10.883   6.474  0.00  0.00     0.157 A 
ATOM     18  C   UNL d   1      -5.762   8.126   6.857  0.00  0.00    -0.022 A 
ATOM     19  C   UNL d   1      -9.481   9.959   7.022  0.00  0.00     0.148 A 
ATOM     20  C   UNL d   1      -7.570   9.058   6.910  0.00  0.00     0.016 C 
ATOM     21  C   UNL d   1      -4.942  10.153   5.235  0.00  0.00     0.021 C 
ATOM     22  C   UNL d   1      -3.971   7.099   6.872  0.00  0.00    -0.005 A 
ATOM     23  C   UNL d   1      -2.337   7.925   5.735  0.00  0.00     0.021 A 
ATOM     24  C   UNL d   1      -3.016   6.585   6.857  0.00  0.00    -0.014 A 
ATOM     25  C   UNL d   1      -8.452  12.020   5.302  0.00  0.00     0.020 C 
ATOM     26  C   UNL d   1      -2.193   7.001   6.285  0.00  0.00     0.006 A 
ATOM     27  C   UNL d   1      -4.736   6.724   7.396  0.00  0.00     0.011 C 
ATOM     28  C   UNL d   1      -2.894   5.734   7.368  0.00  0.00     0.010 C 
ENDROOT
BRANCH   9  29
ATOM     29  C   UNL d   1      -9.399  12.066   5.618  0.00  0.00     0.176 C 
BRANCH  29  30
ATOM     30  O   UNL d   1      -9.427  12.347   4.660  0.00  0.00    -0.400 OA
ATOM     31  H   UNL d   1      -9.411  12.949   4.513  0.00  0.00     0.209 HD
ENDBRANCH  29  30
ENDBRANCH   9  29
BRANCH  17  32
ATOM     32  O   UNL d   1     -10.520  11.343   6.500  0.00  0.00    -0.392 OA
ATOM     33  H   UNL d   1     -10.972  11.165   6.114  0.00  0.00     0.210 HD
ENDBRANCH  17  32
BRANCH  19  34
ATOM     34  O   UNL d   1     -10.227   9.561   7.554  0.00  0.00    -0.393 OA
ATOM     35  H   UNL d   1     -10.814   9.727   7.439  0.00  0.00     0.210 HD
ENDBRANCH  19  34
BRANCH  14  36
ATOM     36  C   UNL d   1      -2.543   8.804   5.238  0.00  0.00     0.149 C 
ATOM     37  O   UNL d   1      -1.997   9.551   5.618  0.00  0.00    -0.649 OA
BRANCH  36  38
ATOM     38  O   UNL d   1      -2.330   8.441   4.331  0.00  0.00    -0.776 OA
ATOM     39  H   UNL d   1      -1.840   8.070   4.253  0.00  0.00     0.167 HD
ENDBRANCH  36  38
ENDBRANCH  14  36
TORSDOF 6
ENDMDL
MODEL 4
REMARK VINA RESULT:   -10.210      0.998      6.317
REMARK INTER + INTRA:         -11.280
REMARK INTER:                 -12.589
REMARK INTRA:                   1.309
REMARK UNBOUND:                 1.317
REMARK  6 active torsions:
REMARK  status: ('A' for Active; 'I' for Inactive)
REMARK    1  A    between atoms: C_22  and  O_1 
REMARK    2  A    between atoms: C_24  and  O_2 
REMARK    3  A    between atoms: O_3  and  C_30 
REMARK    4  A    between atoms: O_4  and  C_33 
REMARK    5  A    between atoms: C_14  and  C_30 
REMARK    6  A    between atoms: C_19  and  C_33 
ROOT
ATOM      1  C   UNL d   1      -6.216   8.747   6.636  0.00  0.00    -0.028 A 
ATOM      2  C   UNL d   1      -6.344   9.588   6.111  0.00  0.00     0.007 A 
ATOM      3  C   UNL d   1      -7.255  10.092   6.123  0.00  0.00    -0.033 A 
ATOM      4  C   UNL d   1      -5.335   8.273   6.615  0.00  0.00    -0.013 A 
ATOM      5  C   UNL d   1      -8.043   9.715   6.689  0.00  0.00     0.007 A 
ATOM      6  C   UNL d   1      -6.990   8.352   7.209  0.00  0.00     0.011 A 
ATOM      7  C   UNL d   1      -4.582   8.641   6.069  0.00  0.00    -0.069 A 
ATOM      8  C   UNL d   1      -7.910   8.839   7.236  0.00  0.00     0.007 A 
ATOM      9  C   UNL d   1      -9.002  10.224   6.717  0.00  0.00     0.010 A 
ATOM     10  C   UNL d   1      -3.659   8.159   6.038  0.00  0.00     0.038 A 
ATOM     11  C   UNL d   1      -5.591   9.956   5.565  0.00  0.00     0.033 A 
ATOM     12  C   UNL d   1      -7.370  11.003   5.545  0.00  0.00     0.044 A 
ATOM     13  C   UNL d   1      -5.217   7.398   7.168  0.00  0.00     0.016 A 
ATOM     14  C   UNL d   1      -3.519   7.282   6.582  0.00  0.00     0.053 A 
ATOM     15  C   UNL d   1      -6.418   7.977   7.242  0.00  0.00     0.016 C 
ATOM     16  C   UNL d   1      -4.303   6.899   7.151  0.00  0.00     0.022 A 
ATOM     17  C   UNL d   1      -9.141  11.136   6.148  0.00  0.00     0.157 A 
ATOM     18  C   UNL d   1      -4.710   9.482   5.544  0.00  0.00    -0.022 A 
ATOM     19  C   UNL d   1      -8.319  11.529   5.558  0.00  0.00     0.148 A 
ATOM     20  C   UNL d   1      -6.498  10.454   5.579  0.00  0.00     0.016 C 
ATOM     21  C   UNL d   1      -5.844   7.668   7.228  0.00  0.00     0.021 C 
ATOM     22  C   UNL d   1      -2.858   8.577   5.438  0.00  0.00    -0.005 A 
ATOM     23  C   UNL d   1      -2.566   6.763   6.565  0.00  0.00     0.021 A 
ATOM     24  C   UNL d   1      -1.897   8.075   5.405  0.00  0.00    -0.014 A 
ATOM     25  C   UNL d   1      -9.359   9.523   7.335  0.00  0.00     0.020 C 
ATOM     26  C   UNL d   1      -1.750   7.162   5.972  0.00  0.00     0.006 A 
ATOM     27  C   UNL d   1      -3.004   9.420   4.919  0.00  0.00     0.011 C 
ATOM     28  C   UNL d   1      -1.151   8.452   4.856  0.00  0.00     0.010 C 
ENDROOT
BRANCH   9  29
ATOM     29  C   UNL d   1      -9.944  10.281   7.046  0.00  0.00     0.176 C 
BRANCH  29  30
ATOM     30  O   UNL d   1     -10.432   9.450   7.315  0.00  0.00    -0.400 OA
ATOM     31  H   UNL d   1     -10.121   8.921   7.397  0.00  0.00     0.209 HD
ENDBRANCH  29  30
ENDBRANCH   9  29
BRANCH  17  32
ATOM     32  O   UNL d   1     -10.019  11.612   6.166  0.00  0.00    -0.392 OA
ATOM     33  H   UNL d   1     -10.369  11.600   6.678  0.00  0.00     0.210 HD
ENDBRANCH  17  32
BRANCH  19  34
ATOM     34  O   UNL d   1      -8.436  12.369   5.029  0.00  0.00    -0.393 OA
ATOM     35  H   UNL d   1      -8.242  12.395   4.440  0.00  0.00     0.210 HD
ENDBRANCH  19  34
BRANCH  14  36
ATOM     36  C   UNL d   1      -3.383   6.441   7.105  0.00  0.00     0.149 C 
ATOM     37  O   UNL d   1      -3.056   6.486   8.048  0.00  0.00    -0.649 OA
BRANCH  36  38
ATOM     38  O   UNL d   1      -3.574   5.554   6.684  0.00  0.00    -0.776 OA
ATOM     39  H   UNL d   1      -4.018   5.504   6.254  0.00  0.00     0.167 HD
ENDBRANCH  36  38
ENDBRANCH  14  36
TORSDOF 6
ENDMDL
MODEL 5
REMARK VINA RESULT:   -10.049      4.590      5.887
REMARK INTER + INTRA:         -11.082
REMARK INTER:                 -12.390
REMARK INTRA:                   1.308
REMARK UNBOUND:                 1.317
REMARK  6 active torsions:
REMARK  status: ('A' for Active; 'I' for Inactive)
REMARK    1  A    between atoms: C_22  and  O_1 
REMARK    2  A    between atoms: C_24  and  O_2 
REMARK    3  A    between atoms: O_3  and  C_30 
REMARK    4  A    between atoms: O_4  and  C_33 
REMARK    5  A    between atoms: C_14  and  C_30 
REMARK    6  A    between atoms: C_19  and  C_33 
ROOT
ATOM      1  C   UNL d   1      -4.475   5.743   7.690  0.00  0.00    -0.028 A 
ATOM      2  C   UNL d   1      -3.882   5.962   6.915  0.00  0.00     0.007 A 
ATOM      3  C   UNL d   1      -3.182   6.731   6.978  0.00  0.00    -0.033 A 
ATOM      4  C   UNL d   1      -5.142   5.003   7.616  0.00  0.00    -0.013 A 
ATOM      5  C   UNL d   1      -3.098   7.278   7.860  0.00  0.00     0.007 A 
ATOM      6  C   UNL d   1      -4.408   6.277   8.582  0.00  0.00     0.011 A 
ATOM      7  C   UNL d   1      -5.217   4.481   6.766  0.00  0.00    -0.069 A 
ATOM      8  C   UNL d   1      -3.715   7.050   8.667  0.00  0.00     0.007 A 
ATOM      9  C   UNL d   1      -2.375   8.084   7.949  0.00  0.00     0.010 A 
ATOM     10  C   UNL d   1      -5.908   3.707   6.673  0.00  0.00     0.038 A 
ATOM     11  C   UNL d   1      -3.957   5.441   6.065  0.00  0.00     0.033 A 
ATOM     12  C   UNL d   1      -2.550   6.951   6.124  0.00  0.00     0.044 A 
ATOM     13  C   UNL d   1      -5.752   4.786   8.432  0.00  0.00     0.016 A 
ATOM     14  C   UNL d   1      -6.529   3.473   7.476  0.00  0.00     0.053 A 
ATOM     15  C   UNL d   1      -4.885   5.786   8.602  0.00  0.00     0.016 C 
ATOM     16  C   UNL d   1      -6.450   4.016   8.361  0.00  0.00     0.022 A 
ATOM     17  C   UNL d   1      -1.733   8.322   7.108  0.00  0.00     0.157 A 
ATOM     18  C   UNL d   1      -4.625   4.700   5.991  0.00  0.00    -0.022 A 
ATOM     19  C   UNL d   1      -1.820   7.751   6.189  0.00  0.00     0.148 A 
ATOM     20  C   UNL d   1      -3.263   6.205   6.132  0.00  0.00     0.016 C 
ATOM     21  C   UNL d   1      -5.320   5.303   8.553  0.00  0.00     0.021 C 
ATOM     22  C   UNL d   1      -5.972   3.155   5.741  0.00  0.00    -0.005 A 
ATOM     23  C   UNL d   1      -7.256   2.671   7.403  0.00  0.00     0.021 A 
ATOM     24  C   UNL d   1      -6.691   2.349   5.644  0.00  0.00    -0.014 A 
ATOM     25  C   UNL d   1      -2.677   8.255   8.887  0.00  0.00     0.020 C 
ATOM     26  C   UNL d   1      -7.337   2.105   6.481  0.00  0.00     0.006 A 
ATOM     27  C   UNL d   1      -5.371   3.388   4.976  0.00  0.00     0.011 C 
ATOM     28  C   UNL d   1      -6.757   1.834   4.789  0.00  0.00     0.010 C 
ENDROOT
BRANCH   9  29
ATOM     29  C   UNL d   1      -1.949   8.811   8.486  0.00  0.00     0.176 C 
BRANCH  29  30
ATOM     30  O   UNL d   1      -2.319   9.054   9.383  0.00  0.00    -0.400 OA
ATOM     31  H   UNL d   1      -2.056   9.507   9.714  0.00  0.00     0.209 HD
ENDBRANCH  29  30
ENDBRANCH   9  29
BRANCH  17  32
ATOM     32  O   UNL d   1      -1.064   9.061   7.179  0.00  0.00    -0.392 OA
ATOM     33  H   UNL d   1      -0.517   9.013   6.891  0.00  0.00     0.210 HD
ENDBRANCH  17  32
BRANCH  19  34
ATOM     34  O   UNL d   1      -1.233   7.962   5.408  0.00  0.00    -0.393 OA
ATOM     35  H   UNL d   1      -1.472   8.231   4.903  0.00  0.00     0.210 HD
ENDBRANCH  19  34
BRANCH  14  36
ATOM     36  C   UNL d   1      -7.125   3.248   8.247  0.00  0.00     0.149 C 
ATOM     37  O   UNL d   1      -8.014   3.696   8.337  0.00  0.00    -0.649 OA
BRANCH  36  38
ATOM     38  O   UNL d   1      -6.832   2.575   8.926  0.00  0.00    -0.776 OA
ATOM     39  H   UNL d   1      -6.365   2.708   9.312  0.00  0.00     0.167 HD
ENDBRANCH  36  38
ENDBRANCH  14  36
TORSDOF 6
ENDMDL
