MODEL 1
REMARK VINA RESULT:    -6.867      0.000      0.000
REMARK INTER + INTRA:          -6.666
REMARK INTER:                  -7.701
REMARK INTRA:                   1.036
REMARK UNBOUND:                 1.004
REMARK  3 active torsions:
REMARK  status: ('A' for Active; 'I' for Inactive)
REMARK    1  A    between atoms: O_2  and  C_10 
REMARK    2  A    between atoms: O_4  and  C_13 
REMARK    3  A    between atoms: C_7  and  C_9 
ROOT
ATOM      1  O   UNL d   1       0.585   9.629  -3.636  0.00  0.00    -0.309 OA
ATOM      2  O   UNL d   1       2.066  11.500  -5.454  0.00  0.00    -0.287 OA
ATOM      3  C   UNL d   1       1.749  10.891  -3.864  0.00  0.00     0.081 A 
ATOM      4  C   UNL d   1       1.255  10.268  -3.258  0.00  0.00     0.095 A 
ATOM      5  C   UNL d   1       0.408   9.615  -4.620  0.00  0.00     0.090 A 
ATOM      6  C   UNL d   1       1.572  10.877  -4.848  0.00  0.00     0.190 A 
ATOM      7  C   UNL d   1       2.450  11.561  -3.485  0.00  0.00     0.085 A 
ATOM      8  C   UNL d   1       0.901  10.238  -5.226  0.00  0.00     0.094 A 
ATOM      9  C   UNL d   1       1.429  10.271  -2.230  0.00  0.00     0.075 A 
ATOM     10  C   UNL d   1       2.126  10.933  -1.830  0.00  0.00     0.071 A 
ATOM     11  C   UNL d   1       2.640  11.582  -2.461  0.00  0.00     0.074 A 
ENDROOT
BRANCH   5  12
ATOM     12  C   UNL d   1      -0.263   8.977  -4.998  0.00  0.00    -0.002 A 
ATOM     13  C   UNL d   1       0.043   8.189  -5.533  0.00  0.00     0.014 A 
ATOM     14  C   UNL d   1      -0.628   7.551  -5.911  0.00  0.00     0.001 A 
ATOM     15  C   UNL d   1      -1.604   7.700  -5.754  0.00  0.00     0.000 A 
ATOM     16  C   UNL d   1      -1.910   8.488  -5.219  0.00  0.00     0.001 A 
ATOM     17  C   UNL d   1      -1.239   9.126  -4.841  0.00  0.00     0.014 A 
ENDBRANCH   5  12
BRANCH   7  18
ATOM     18  O   UNL d   1       2.938  12.180  -4.100  0.00  0.00    -0.360 OA
ATOM     19  H   UNL d   1       3.239  11.954  -4.592  0.00  0.00     0.217 HD
ENDBRANCH   7  18
BRANCH  10  20
ATOM     20  O   UNL d   1       2.300  10.944  -0.845  0.00  0.00    -0.361 OA
ATOM     21  H   UNL d   1       2.214  10.430  -0.509  0.00  0.00     0.217 HD
ENDBRANCH  10  20
TORSDOF 3
ENDMDL
MODEL 2
REMARK VINA RESULT:    -6.650     10.725     11.896
REMARK INTER + INTRA:          -6.424
REMARK INTER:                  -7.815
REMARK INTRA:                   1.392
REMARK UNBOUND:                 1.004
REMARK  3 active torsions:
REMARK  status: ('A' for Active; 'I' for Inactive)
REMARK    1  A    between atoms: O_2  and  C_10 
REMARK    2  A    between atoms: O_4  and  C_13 
REMARK    3  A    between atoms: C_7  and  C_9 
ROOT
ATOM      1  O   UNL d   1      -4.857   8.112   6.316  0.00  0.00    -0.309 OA
ATOM      2  O   UNL d   1      -2.294   9.284   5.287  0.00  0.00    -0.287 OA
ATOM      3  C   UNL d   1      -3.156   7.971   6.017  0.00  0.00     0.081 A 
ATOM      4  C   UNL d   1      -4.011   7.580   6.360  0.00  0.00     0.095 A 
ATOM      5  C   UNL d   1      -4.848   9.034   5.929  0.00  0.00     0.090 A 
ATOM      6  C   UNL d   1      -3.148   8.893   5.630  0.00  0.00     0.190 A 
ATOM      7  C   UNL d   1      -2.268   7.430   6.057  0.00  0.00     0.085 A 
ATOM      8  C   UNL d   1      -3.994   9.424   5.586  0.00  0.00     0.094 A 
ATOM      9  C   UNL d   1      -4.035   6.621   6.766  0.00  0.00     0.075 A 
ATOM     10  C   UNL d   1      -3.158   6.062   6.816  0.00  0.00     0.071 A 
ATOM     11  C   UNL d   1      -2.269   6.469   6.459  0.00  0.00     0.074 A 
ENDROOT
BRANCH   5  12
ATOM     12  C   UNL d   1      -5.695   9.565   5.885  0.00  0.00    -0.002 A 
ATOM     13  C   UNL d   1      -5.753  10.362   5.284  0.00  0.00     0.014 A 
ATOM     14  C   UNL d   1      -6.599  10.894   5.240  0.00  0.00     0.001 A 
ATOM     15  C   UNL d   1      -7.387  10.627   5.796  0.00  0.00     0.000 A 
ATOM     16  C   UNL d   1      -7.328   9.830   6.397  0.00  0.00     0.001 A 
ATOM     17  C   UNL d   1      -6.482   9.298   6.441  0.00  0.00     0.014 A 
ENDBRANCH   5  12
BRANCH   7  18
ATOM     18  O   UNL d   1      -1.419   7.830   5.710  0.00  0.00    -0.360 OA
ATOM     19  H   UNL d   1      -1.401   8.071   5.140  0.00  0.00     0.217 HD
ENDBRANCH   7  18
BRANCH  10  20
ATOM     20  O   UNL d   1      -3.170   5.140   7.204  0.00  0.00    -0.361 OA
ATOM     21  H   UNL d   1      -3.066   5.058   7.809  0.00  0.00     0.217 HD
ENDBRANCH  10  20
TORSDOF 3
ENDMDL
MODEL 3
REMARK VINA RESULT:    -6.638     10.351     11.914
REMARK INTER + INTRA:          -6.409
REMARK INTER:                  -7.852
REMARK INTRA:                   1.443
REMARK UNBOUND:                 1.004
REMARK  3 active torsions:
REMARK  status: ('A' for Active; 'I' for Inactive)
REMARK    1  A    between atoms: O_2  and  C_10 
REMARK    2  A    between atoms: O_4  and  C_13 
REMARK    3  A    between atoms: C_7  and  C_9 
ROOT
ATOM      1  O   UNL d   1      -4.241   9.190   5.547  0.00  0.00    -0.309 OA
ATOM      2  O   UNL d   1      -4.349   6.769   7.315  0.00  0.00    -0.287 OA
ATOM      3  C   UNL d   1      -3.476   7.790   6.222  0.00  0.00     0.081 A 
ATOM      4  C   UNL d   1      -3.440   8.597   5.632  0.00  0.00     0.095 A 
ATOM      5  C   UNL d   1      -5.077   8.976   6.051  0.00  0.00     0.090 A 
ATOM      6  C   UNL d   1      -4.313   7.576   6.726  0.00  0.00     0.190 A 
ATOM      7  C   UNL d   1      -2.650   7.164   6.320  0.00  0.00     0.085 A 
ATOM      8  C   UNL d   1      -5.114   8.169   6.641  0.00  0.00     0.094 A 
ATOM      9  C   UNL d   1      -2.576   8.833   5.101  0.00  0.00     0.075 A 
ATOM     10  C   UNL d   1      -1.738   8.220   5.185  0.00  0.00     0.071 A 
ATOM     11  C   UNL d   1      -1.775   7.380   5.798  0.00  0.00     0.074 A 
ENDROOT
BRANCH   5  12
ATOM     12  C   UNL d   1      -5.878   9.570   5.966  0.00  0.00    -0.002 A 
ATOM     13  C   UNL d   1      -6.707   9.368   6.486  0.00  0.00     0.014 A 
ATOM     14  C   UNL d   1      -7.508   9.961   6.401  0.00  0.00     0.001 A 
ATOM     15  C   UNL d   1      -7.479  10.756   5.795  0.00  0.00     0.000 A 
ATOM     16  C   UNL d   1      -6.649  10.958   5.274  0.00  0.00     0.001 A 
ATOM     17  C   UNL d   1      -5.849  10.364   5.360  0.00  0.00     0.014 A 
ENDBRANCH   5  12
BRANCH   7  18
ATOM     18  O   UNL d   1      -2.698   6.359   6.913  0.00  0.00    -0.360 OA
ATOM     19  H   UNL d   1      -3.223   6.032   6.949  0.00  0.00     0.217 HD
ENDBRANCH   7  18
BRANCH  10  20
ATOM     20  O   UNL d   1      -0.903   8.438   4.679  0.00  0.00    -0.361 OA
ATOM     21  H   UNL d   1      -0.596   8.962   4.799  0.00  0.00     0.217 HD
ENDBRANCH  10  20
TORSDOF 3
ENDMDL
MODEL 4
REMARK VINA RESULT:    -6.558      9.818     11.300
REMARK INTER + INTRA:          -6.320
REMARK INTER:                  -7.332
REMARK INTRA:                   1.012
REMARK UNBOUND:                 1.004
REMARK  3 active torsions:
REMARK  status: ('A' for Active; 'I' for Inactive)
REMARK    1  A    between atoms: O_2  and  C_10 
REMARK    2  A    between atoms: O_4  and  C_13 
REMARK    3  A    between atoms: C_7  and  C_9 
ROOT
ATOM      1  O   UNL d   1      -2.098   7.767   7.153  0.00  0.00    -0.309 OA
ATOM      2  O   UNL d   1      -1.329   8.093   4.272  0.00  0.00    -0.287 OA
ATOM      3  C   UNL d   1      -1.150   8.549   5.933  0.00  0.00     0.081 A 
ATOM      4  C   UNL d   1      -1.406   8.441   6.894  0.00  0.00     0.095 A 
ATOM      5  C   UNL d   1      -2.533   7.202   6.453  0.00  0.00     0.090 A 
ATOM      6  C   UNL d   1      -1.585   7.984   5.232  0.00  0.00     0.190 A 
ATOM      7  C   UNL d   1      -0.431   9.247   5.648  0.00  0.00     0.085 A 
ATOM      8  C   UNL d   1      -2.277   7.311   5.492  0.00  0.00     0.094 A 
ATOM      9  C   UNL d   1      -0.961   9.022   7.635  0.00  0.00     0.075 A 
ATOM     10  C   UNL d   1      -0.240   9.726   7.372  0.00  0.00     0.071 A 
ATOM     11  C   UNL d   1       0.027   9.839   6.372  0.00  0.00     0.074 A 
ENDROOT
BRANCH   5  12
ATOM     12  C   UNL d   1      -3.225   6.528   6.712  0.00  0.00    -0.002 A 
ATOM     13  C   UNL d   1      -2.978   5.562   6.789  0.00  0.00     0.014 A 
ATOM     14  C   UNL d   1      -3.670   4.888   7.049  0.00  0.00     0.001 A 
ATOM     15  C   UNL d   1      -4.608   5.180   7.232  0.00  0.00     0.000 A 
ATOM     16  C   UNL d   1      -4.855   6.146   7.156  0.00  0.00     0.001 A 
ATOM     17  C   UNL d   1      -4.164   6.820   6.896  0.00  0.00     0.014 A 
ENDBRANCH   5  12
BRANCH   7  18
ATOM     18  O   UNL d   1      -0.183   9.347   4.684  0.00  0.00    -0.360 OA
ATOM     19  H   UNL d   1      -0.570   9.150   4.243  0.00  0.00     0.217 HD
ENDBRANCH   7  18
BRANCH  10  20
ATOM     20  O   UNL d   1       0.193  10.289   8.076  0.00  0.00    -0.361 OA
ATOM     21  H   UNL d   1       0.210  10.092   8.664  0.00  0.00     0.217 HD
ENDBRANCH  10  20
TORSDOF 3
ENDMDL
MODEL 5
REMARK VINA RESULT:    -6.553     10.594     12.150
REMARK INTER + INTRA:          -6.315
REMARK INTER:                  -7.356
REMARK INTRA:                   1.041
REMARK UNBOUND:                 1.004
REMARK  3 active torsions:
REMARK  status: ('A' for Active; 'I' for Inactive)
REMARK    1  A    between atoms: O_2  and  C_10 
REMARK    2  A    between atoms: O_4  and  C_13 
REMARK    3  A    between atoms: C_7  and  C_9 
ROOT
ATOM      1  O   UNL d   1      -2.909   6.750   6.203  0.00  0.00    -0.309 OA
ATOM      2  O   UNL d   1      -2.053   8.346   8.595  0.00  0.00    -0.287 OA
ATOM      3  C   UNL d   1      -1.946   8.010   6.899  0.00  0.00     0.081 A 
ATOM      4  C   UNL d   1      -2.231   7.478   6.102  0.00  0.00     0.095 A 
ATOM      5  C   UNL d   1      -3.301   6.553   7.101  0.00  0.00     0.090 A 
ATOM      6  C   UNL d   1      -2.338   7.814   7.797  0.00  0.00     0.190 A 
ATOM      7  C   UNL d   1      -1.242   8.772   6.808  0.00  0.00     0.085 A 
ATOM      8  C   UNL d   1      -3.016   7.085   7.899  0.00  0.00     0.094 A 
ATOM      9  C   UNL d   1      -1.832   7.671   5.159  0.00  0.00     0.075 A 
ATOM     10  C   UNL d   1      -1.126   8.429   5.046  0.00  0.00     0.071 A 
ATOM     11  C   UNL d   1      -0.829   8.982   5.876  0.00  0.00     0.074 A 
ENDROOT
BRANCH   5  12
ATOM     12  C   UNL d   1      -3.978   5.825   7.203  0.00  0.00    -0.002 A 
ATOM     13  C   UNL d   1      -4.936   6.053   7.379  0.00  0.00     0.014 A 
ATOM     14  C   UNL d   1      -5.613   5.325   7.480  0.00  0.00     0.001 A 
ATOM     15  C   UNL d   1      -5.333   4.367   7.405  0.00  0.00     0.000 A 
ATOM     16  C   UNL d   1      -4.376   4.139   7.229  0.00  0.00     0.001 A 
ATOM     17  C   UNL d   1      -3.698   4.868   7.128  0.00  0.00     0.014 A 
ENDBRANCH   5  12
BRANCH   7  18
ATOM     18  O   UNL d   1      -0.964   9.297   7.613  0.00  0.00    -0.360 OA
ATOM     19  H   UNL d   1      -1.124   9.104   8.179  0.00  0.00     0.217 HD
ENDBRANCH   7  18
BRANCH  10  20
ATOM     20  O   UNL d   1      -0.736   8.622   4.145  0.00  0.00    -0.361 OA
ATOM     21  H   UNL d   1      -0.771   8.197   3.695  0.00  0.00     0.217 HD
ENDBRANCH  10  20
TORSDOF 3
ENDMDL
