MODEL 1
REMARK VINA RESULT:    -4.631      0.000      0.000
REMARK INTER + INTRA:          -4.856
REMARK INTER:                  -5.790
REMARK INTRA:                   0.934
REMARK UNBOUND:                 0.993
REMARK  6 active torsions:
REMARK  status: ('A' for Active; 'I' for Inactive)
REMARK    1  A    between atoms: O_1  and  C_8 
REMARK    2  A    between atoms: O_2  and  C_9 
REMARK    3  A    between atoms: O_3  and  C_13 
REMARK    4  A    between atoms: C_5  and  C_11 
REMARK    5  A    between atoms: C_11  and  C_12 
REMARK    6  A    between atoms: C_12  and  C_13 
ROOT
ATOM      1  C   UNL d   1      -2.619   6.796   6.683  0.00  0.00    -0.033 A 
ATOM      2  C   UNL d   1      -3.177   6.023   6.380  0.00  0.00     0.050 A 
ATOM      3  C   UNL d   1      -2.772   7.199   7.585  0.00  0.00     0.014 A 
ATOM      4  C   UNL d   1      -3.887   5.653   6.980  0.00  0.00     0.099 A 
ATOM      5  C   UNL d   1      -4.039   6.057   7.882  0.00  0.00     0.098 A 
ATOM      6  C   UNL d   1      -3.481   6.829   8.185  0.00  0.00     0.040 A 
ENDROOT
BRANCH   1   7
ATOM      7  C   UNL d   1      -1.910   7.165   6.083  0.00  0.00     0.018 C 
BRANCH   7   8
ATOM      8  C   UNL d   1      -2.129   7.900   5.442  0.00  0.00     0.082 C 
BRANCH   8   9
ATOM      9  C   UNL d   1      -1.432   8.238   4.811  0.00  0.00     0.165 C 
ATOM     10  O   UNL d   1      -0.699   8.831   5.146  0.00  0.00    -0.647 OA
BRANCH   9  11
ATOM     11  O   UNL d   1      -1.466   7.983   3.845  0.00  0.00    -0.773 OA
ATOM     12  H   UNL d   1      -1.291   8.390   3.410  0.00  0.00     0.167 HD
ENDBRANCH   9  11
ENDBRANCH   8   9
ENDBRANCH   7   8
ENDBRANCH   1   7
BRANCH   4  13
ATOM     13  O   UNL d   1      -4.445   4.881   6.677  0.00  0.00    -0.358 OA
ATOM     14  H   UNL d   1      -4.817   4.590   7.080  0.00  0.00     0.217 HD
ENDBRANCH   4  13
BRANCH   5  15
ATOM     15  O   UNL d   1      -4.749   5.687   8.482  0.00  0.00    -0.358 OA
ATOM     16  H   UNL d   1      -5.058   5.175   8.318  0.00  0.00     0.217 HD
ENDBRANCH   5  15
TORSDOF 6
ENDMDL
MODEL 2
REMARK VINA RESULT:    -4.580     24.835     25.519
REMARK INTER + INTRA:          -4.791
REMARK INTER:                  -5.722
REMARK INTRA:                   0.931
REMARK UNBOUND:                 0.993
REMARK  6 active torsions:
REMARK  status: ('A' for Active; 'I' for Inactive)
REMARK    1  A    between atoms: O_1  and  C_8 
REMARK    2  A    between atoms: O_2  and  C_9 
REMARK    3  A    between atoms: O_3  and  C_13 
REMARK    4  A    between atoms: C_5  and  C_11 
REMARK    5  A    between atoms: C_11  and  C_12 
REMARK    6  A    between atoms: C_12  and  C_13 
ROOT
ATOM      1  C   UNL d   1       6.047 -11.656  -9.087  0.00  0.00    -0.033 A 
ATOM      2  C   UNL d   1       5.049 -11.610  -9.041  0.00  0.00     0.050 A 
ATOM      3  C   UNL d   1       6.518 -12.514  -8.885  0.00  0.00     0.014 A 
ATOM      4  C   UNL d   1       4.522 -12.422  -8.793  0.00  0.00     0.099 A 
ATOM      5  C   UNL d   1       4.993 -13.281  -8.591  0.00  0.00     0.098 A 
ATOM      6  C   UNL d   1       5.991 -13.327  -8.637  0.00  0.00     0.040 A 
ENDROOT
BRANCH   1   7
ATOM      7  C   UNL d   1       6.574 -10.843  -9.335  0.00  0.00     0.018 C 
BRANCH   7   8
ATOM      8  C   UNL d   1       6.728 -10.122  -8.660  0.00  0.00     0.082 C 
BRANCH   8   9
ATOM      9  C   UNL d   1       7.309  -9.340  -8.887  0.00  0.00     0.165 C 
ATOM     10  O   UNL d   1       8.278  -9.348  -8.639  0.00  0.00    -0.647 OA
BRANCH   9  11
ATOM     11  O   UNL d   1       6.922  -8.550  -9.363  0.00  0.00    -0.773 OA
ATOM     12  H   UNL d   1       7.261  -8.243  -9.781  0.00  0.00     0.167 HD
ENDBRANCH   9  11
ENDBRANCH   8   9
ENDBRANCH   7   8
ENDBRANCH   1   7
BRANCH   4  13
ATOM     13  O   UNL d   1       3.524 -12.376  -8.746  0.00  0.00    -0.358 OA
ATOM     14  H   UNL d   1       3.202 -12.139  -9.220  0.00  0.00     0.217 HD
ENDBRANCH   4  13
BRANCH   5  15
ATOM     15  O   UNL d   1       4.466 -14.094  -8.343  0.00  0.00    -0.358 OA
ATOM     16  H   UNL d   1       3.897 -14.177  -8.574  0.00  0.00     0.217 HD
ENDBRANCH   5  15
TORSDOF 6
ENDMDL
MODEL 3
REMARK VINA RESULT:    -4.575      2.502      2.810
REMARK INTER + INTRA:          -4.785
REMARK INTER:                  -5.859
REMARK INTRA:                   1.073
REMARK UNBOUND:                 0.993
REMARK  6 active torsions:
REMARK  status: ('A' for Active; 'I' for Inactive)
REMARK    1  A    between atoms: O_1  and  C_8 
REMARK    2  A    between atoms: O_2  and  C_9 
REMARK    3  A    between atoms: O_3  and  C_13 
REMARK    4  A    between atoms: C_5  and  C_11 
REMARK    5  A    between atoms: C_11  and  C_12 
REMARK    6  A    between atoms: C_12  and  C_13 
ROOT
ATOM      1  C   UNL d   1      -3.910   9.067   5.634  0.00  0.00    -0.033 A 
ATOM      2  C   UNL d   1      -4.206   8.309   6.215  0.00  0.00     0.050 A 
ATOM      3  C   UNL d   1      -4.558   9.785   5.380  0.00  0.00     0.014 A 
ATOM      4  C   UNL d   1      -5.150   8.268   6.541  0.00  0.00     0.099 A 
ATOM      5  C   UNL d   1      -5.799   8.986   6.287  0.00  0.00     0.098 A 
ATOM      6  C   UNL d   1      -5.503   9.744   5.706  0.00  0.00     0.040 A 
ENDROOT
BRANCH   1   7
ATOM      7  C   UNL d   1      -2.966   9.108   5.307  0.00  0.00     0.018 C 
BRANCH   7   8
ATOM      8  C   UNL d   1      -2.441   8.265   5.190  0.00  0.00     0.082 C 
BRANCH   8   9
ATOM      9  C   UNL d   1      -1.552   8.289   4.732  0.00  0.00     0.165 C 
ATOM     10  O   UNL d   1      -0.747   8.627   5.220  0.00  0.00    -0.647 OA
BRANCH   9  11
ATOM     11  O   UNL d   1      -1.468   7.975   3.787  0.00  0.00    -0.773 OA
ATOM     12  H   UNL d   1      -1.865   8.177   3.356  0.00  0.00     0.167 HD
ENDBRANCH   9  11
ENDBRANCH   8   9
ENDBRANCH   7   8
ENDBRANCH   1   7
BRANCH   4  13
ATOM     13  O   UNL d   1      -5.447   7.510   7.122  0.00  0.00    -0.358 OA
ATOM     14  H   UNL d   1      -5.989   7.229   7.013  0.00  0.00     0.217 HD
ENDBRANCH   4  13
BRANCH   5  15
ATOM     15  O   UNL d   1      -6.743   8.946   6.614  0.00  0.00    -0.358 OA
ATOM     16  H   UNL d   1      -6.864   9.001   7.219  0.00  0.00     0.217 HD
ENDBRANCH   5  15
TORSDOF 6
ENDMDL
MODEL 4
REMARK VINA RESULT:    -4.491     12.445     12.771
REMARK INTER + INTRA:          -4.679
REMARK INTER:                  -5.720
REMARK INTRA:                   1.041
REMARK UNBOUND:                 0.993
REMARK  6 active torsions:
REMARK  status: ('A' for Active; 'I' for Inactive)
REMARK    1  A    between atoms: O_1  and  C_8 
REMARK    2  A    between atoms: O_2  and  C_9 
REMARK    3  A    between atoms: O_3  and  C_13 
REMARK    4  A    between atoms: C_5  and  C_11 
REMARK    5  A    between atoms: C_11  and  C_12 
REMARK    6  A    between atoms: C_12  and  C_13 
ROOT
ATOM      1  C   UNL d   1       4.734  -3.402   8.612  0.00  0.00    -0.033 A 
ATOM      2  C   UNL d   1       4.275  -2.648   9.082  0.00  0.00     0.050 A 
ATOM      3  C   UNL d   1       4.371  -4.331   8.684  0.00  0.00     0.014 A 
ATOM      4  C   UNL d   1       3.453  -2.823   9.623  0.00  0.00     0.099 A 
ATOM      5  C   UNL d   1       3.090  -3.752   9.695  0.00  0.00     0.098 A 
ATOM      6  C   UNL d   1       3.549  -4.506   9.226  0.00  0.00     0.040 A 
ENDROOT
BRANCH   1   7
ATOM      7  C   UNL d   1       5.557  -3.227   8.070  0.00  0.00     0.018 C 
BRANCH   7   8
ATOM      8  C   UNL d   1       5.475  -2.928   7.120  0.00  0.00     0.082 C 
BRANCH   8   9
ATOM      9  C   UNL d   1       6.288  -2.879   6.539  0.00  0.00     0.165 C 
ATOM     10  O   UNL d   1       7.191  -3.059   6.928  0.00  0.00    -0.647 OA
BRANCH   9  11
ATOM     11  O   UNL d   1       6.197  -2.650   5.570  0.00  0.00    -0.773 OA
ATOM     12  H   UNL d   1       5.948  -2.107   5.402  0.00  0.00     0.167 HD
ENDBRANCH   9  11
ENDBRANCH   8   9
ENDBRANCH   7   8
ENDBRANCH   1   7
BRANCH   4  13
ATOM     13  O   UNL d   1       2.994  -2.069  10.093  0.00  0.00    -0.358 OA
ATOM     14  H   UNL d   1       2.864  -1.545   9.786  0.00  0.00     0.217 HD
ENDBRANCH   4  13
BRANCH   5  15
ATOM     15  O   UNL d   1       2.268  -3.926  10.237  0.00  0.00    -0.358 OA
ATOM     16  H   UNL d   1       1.938  -4.443  10.142  0.00  0.00     0.217 HD
ENDBRANCH   5  15
TORSDOF 6
ENDMDL
MODEL 5
REMARK VINA RESULT:    -4.454     15.158     16.001
REMARK INTER + INTRA:          -4.633
REMARK INTER:                  -5.806
REMARK INTRA:                   1.173
REMARK UNBOUND:                 0.993
REMARK  6 active torsions:
REMARK  status: ('A' for Active; 'I' for Inactive)
REMARK    1  A    between atoms: O_1  and  C_8 
REMARK    2  A    between atoms: O_2  and  C_9 
REMARK    3  A    between atoms: O_3  and  C_13 
REMARK    4  A    between atoms: C_5  and  C_11 
REMARK    5  A    between atoms: C_11  and  C_12 
REMARK    6  A    between atoms: C_12  and  C_13 
ROOT
ATOM      1  C   UNL d   1      -5.163  16.592  -5.348  0.00  0.00    -0.033 A 
ATOM      2  C   UNL d   1      -4.740  16.974  -4.526  0.00  0.00     0.050 A 
ATOM      3  C   UNL d   1      -4.716  16.698  -6.236  0.00  0.00     0.014 A 
ATOM      4  C   UNL d   1      -3.869  17.461  -4.592  0.00  0.00     0.099 A 
ATOM      5  C   UNL d   1      -3.421  17.566  -5.480  0.00  0.00     0.098 A 
ATOM      6  C   UNL d   1      -3.845  17.185  -6.302  0.00  0.00     0.040 A 
ENDROOT
BRANCH   1   7
ATOM      7  C   UNL d   1      -6.034  16.105  -5.282  0.00  0.00     0.018 C 
BRANCH   7   8
ATOM      8  C   UNL d   1      -6.424  15.666  -6.091  0.00  0.00     0.082 C 
BRANCH   8   9
ATOM      9  C   UNL d   1      -7.210  15.055  -5.998  0.00  0.00     0.165 C 
ATOM     10  O   UNL d   1      -8.054  15.387  -5.577  0.00  0.00    -0.647 OA
BRANCH   9  11
ATOM     11  O   UNL d   1      -7.153  14.113  -6.328  0.00  0.00    -0.773 OA
ATOM     12  H   UNL d   1      -7.365  13.648  -5.976  0.00  0.00     0.167 HD
ENDBRANCH   9  11
ENDBRANCH   8   9
ENDBRANCH   7   8
ENDBRANCH   1   7
BRANCH   4  13
ATOM     13  O   UNL d   1      -3.445  17.842  -3.771  0.00  0.00    -0.358 OA
ATOM     14  H   UNL d   1      -3.199  18.411  -3.784  0.00  0.00     0.217 HD
ENDBRANCH   4  13
BRANCH   5  15
ATOM     15  O   UNL d   1      -2.550  18.053  -5.547  0.00  0.00    -0.358 OA
ATOM     16  H   UNL d   1      -2.543  18.659  -5.676  0.00  0.00     0.217 HD
ENDBRANCH   5  15
TORSDOF 6
ENDMDL
