MODEL 1
REMARK VINA RESULT:    -9.602      0.000      0.000
REMARK INTER + INTRA:          -4.721
REMARK INTER:                 -14.571
REMARK INTRA:                   9.849
REMARK UNBOUND:                10.493
REMARK  14 active torsions:
REMARK  status: ('A' for Active; 'I' for Inactive)
REMARK    1  A    between atoms: C_15  and  O_1 
REMARK    2  A    between atoms: C_18  and  O_1 
REMARK    3  A    between atoms: C_16  and  O_4 
REMARK    4  A    between atoms: C_20  and  O_5 
REMARK    5  A    between atoms: O_5  and  C_27 
REMARK    6  A    between atoms: C_17  and  O_6 
REMARK    7  A    between atoms: C_19  and  O_7 
REMARK    8  A    between atoms: C_22  and  O_8 
REMARK    9  A    between atoms: C_23  and  O_9 
REMARK   10  A    between atoms: O_10  and  C_25 
REMARK   11  A    between atoms: O_12  and  C_31 
REMARK   12  A    between atoms: O_14  and  C_41 
REMARK   13  A    between atoms: C_21  and  C_25 
REMARK   14  A    between atoms: C_34  and  C_36 
ROOT
ATOM      1  O   UNL d   1      16.007  10.895  -0.040  0.00  0.00    -0.348 OA
ATOM      2  C   UNL d   1      17.016   9.996  -1.123  0.00  0.00     0.211 A 
ATOM      3  C   UNL d   1      17.530  10.828  -1.335  0.00  0.00     0.183 A 
ATOM      4  C   UNL d   1      17.282  11.693  -0.899  0.00  0.00     0.180 A 
ATOM      5  C   UNL d   1      16.255  10.030  -0.476  0.00  0.00     0.298 A 
ATOM      6  C   UNL d   1      16.521  11.727  -0.252  0.00  0.00     0.179 A 
ENDROOT
BRANCH   5   7
ATOM      7  O   UNL d   1      15.741   9.199  -0.264  0.00  0.00    -0.318 OA
BRANCH   7   8
ATOM      8  C   UNL d   1      14.918   9.250   0.302  0.00  0.00     0.077 A 
ATOM      9  C   UNL d   1      13.992   9.443  -0.135  0.00  0.00     0.075 A 
ATOM     10  C   UNL d   1      13.142   9.494   0.464  0.00  0.00     0.095 A 
ATOM     11  O   UNL d   1      12.256   9.680   0.038  0.00  0.00    -0.309 OA
ATOM     12  C   UNL d   1      13.202   9.360   1.454  0.00  0.00     0.081 A 
ATOM     13  C   UNL d   1      11.431   9.732   0.601  0.00  0.00     0.090 A 
ATOM     14  C   UNL d   1      11.492   9.598   1.590  0.00  0.00     0.094 A 
ATOM     15  C   UNL d   1      12.377   9.412   2.016  0.00  0.00     0.190 A 
ATOM     16  O   UNL d   1      12.437   9.278   3.005  0.00  0.00    -0.287 OA
ATOM     17  C   UNL d   1      14.117   9.165   1.912  0.00  0.00     0.085 A 
ATOM     18  C   UNL d   1      14.980   9.110   1.332  0.00  0.00     0.074 A 
BRANCH  13  19
ATOM     19  C   UNL d   1      10.546   9.918   0.175  0.00  0.00    -0.002 A 
ATOM     20  C   UNL d   1       9.899   9.172   0.019  0.00  0.00     0.017 A 
ATOM     21  C   UNL d   1       9.014   9.359  -0.407  0.00  0.00     0.037 A 
ATOM     22  C   UNL d   1       8.775  10.291  -0.677  0.00  0.00     0.065 A 
ATOM     23  C   UNL d   1       9.423  11.037  -0.522  0.00  0.00     0.037 A 
ATOM     24  C   UNL d   1      10.308  10.851  -0.096  0.00  0.00     0.017 A 
BRANCH  22  25
ATOM     25  O   UNL d   1       7.890  10.477  -1.104  0.00  0.00    -0.361 OA
ATOM     26  H   UNL d   1       7.864  10.779  -1.645  0.00  0.00     0.217 HD
ENDBRANCH  22  25
ENDBRANCH  13  19
BRANCH  17  27
ATOM     27  O   UNL d   1      14.165   9.033   2.902  0.00  0.00    -0.360 OA
ATOM     28  H   UNL d   1      14.603   8.666   3.145  0.00  0.00     0.217 HD
ENDBRANCH  17  27
ENDBRANCH   7   8
ENDBRANCH   5   7
BRANCH   2  29
ATOM     29  O   UNL d   1      17.263   9.131  -1.559  0.00  0.00    -0.346 OA
BRANCH  29  30
ATOM     30  C   UNL d   1      18.007   8.577  -1.185  0.00  0.00     0.292 A 
ATOM     31  O   UNL d   1      18.349   8.757  -0.262  0.00  0.00    -0.351 OA
ATOM     32  C   UNL d   1      19.093   8.204   0.112  0.00  0.00     0.152 A 
ATOM     33  C   UNL d   1      19.495   7.470  -0.437  0.00  0.00     0.178 A 
ATOM     34  C   UNL d   1      19.434   8.383   1.034  0.00  0.00     0.042 C 
ATOM     35  C   UNL d   1      19.154   7.291  -1.359  0.00  0.00     0.183 A 
ATOM     36  C   UNL d   1      18.410   7.844  -1.733  0.00  0.00     0.204 A 
BRANCH  33  37
ATOM     37  O   UNL d   1      20.239   6.917  -0.062  0.00  0.00    -0.390 OA
ATOM     38  H   UNL d   1      20.710   7.190   0.235  0.00  0.00     0.210 HD
ENDBRANCH  33  37
BRANCH  35  39
ATOM     39  O   UNL d   1      19.556   6.558  -1.907  0.00  0.00    -0.390 OA
ATOM     40  H   UNL d   1      20.052   6.672  -2.262  0.00  0.00     0.210 HD
ENDBRANCH  35  39
BRANCH  36  41
ATOM     41  O   UNL d   1      18.068   7.665  -2.656  0.00  0.00    -0.388 OA
ATOM     42  H   UNL d   1      17.494   7.838  -2.813  0.00  0.00     0.210 HD
ENDBRANCH  36  41
ENDBRANCH  29  30
ENDBRANCH   2  29
BRANCH   6  43
ATOM     43  C   UNL d   1      16.273  12.592   0.184  0.00  0.00     0.198 C 
BRANCH  43  44
ATOM     44  O   UNL d   1      15.318  12.781   0.413  0.00  0.00    -0.398 OA
ATOM     45  H   UNL d   1      14.880  12.362   0.285  0.00  0.00     0.209 HD
ENDBRANCH  43  44
ENDBRANCH   6  43
BRANCH   3  46
ATOM     46  O   UNL d   1      18.291  10.794  -1.983  0.00  0.00    -0.390 OA
ATOM     47  H   UNL d   1      18.180  10.708  -2.587  0.00  0.00     0.210 HD
ENDBRANCH   3  46
BRANCH   4  48
ATOM     48  O   UNL d   1      17.796  12.524  -1.111  0.00  0.00    -0.390 OA
ATOM     49  H   UNL d   1      18.263  12.505  -1.518  0.00  0.00     0.210 HD
ENDBRANCH   4  48
TORSDOF 14
ENDMDL
MODEL 2
REMARK VINA RESULT:    -9.256      4.931      7.722
REMARK INTER + INTRA:          -4.174
REMARK INTER:                 -14.221
REMARK INTRA:                  10.048
REMARK UNBOUND:                10.493
REMARK  14 active torsions:
REMARK  status: ('A' for Active; 'I' for Inactive)
REMARK    1  A    between atoms: C_15  and  O_1 
REMARK    2  A    between atoms: C_18  and  O_1 
REMARK    3  A    between atoms: C_16  and  O_4 
REMARK    4  A    between atoms: C_20  and  O_5 
REMARK    5  A    between atoms: O_5  and  C_27 
REMARK    6  A    between atoms: C_17  and  O_6 
REMARK    7  A    between atoms: C_19  and  O_7 
REMARK    8  A    between atoms: C_22  and  O_8 
REMARK    9  A    between atoms: C_23  and  O_9 
REMARK   10  A    between atoms: O_10  and  C_25 
REMARK   11  A    between atoms: O_12  and  C_31 
REMARK   12  A    between atoms: O_14  and  C_41 
REMARK   13  A    between atoms: C_21  and  C_25 
REMARK   14  A    between atoms: C_34  and  C_36 
ROOT
ATOM      1  O   UNL d   1       8.509  10.728   1.396  0.00  0.00    -0.348 OA
ATOM      2  C   UNL d   1       9.578  11.402   0.211  0.00  0.00     0.211 A 
ATOM      3  C   UNL d   1       8.800  11.830  -0.247  0.00  0.00     0.183 A 
ATOM      4  C   UNL d   1       7.876  11.708   0.116  0.00  0.00     0.180 A 
ATOM      5  C   UNL d   1       9.433  10.850   1.033  0.00  0.00     0.298 A 
ATOM      6  C   UNL d   1       7.731  11.156   0.937  0.00  0.00     0.179 A 
ENDROOT
BRANCH   5   7
ATOM      7  O   UNL d   1      10.211  10.422   1.492  0.00  0.00    -0.318 OA
BRANCH   7   8
ATOM      8  C   UNL d   1      10.064   9.649   2.110  0.00  0.00     0.077 A 
ATOM      9  C   UNL d   1      10.198   9.766   3.136  0.00  0.00     0.075 A 
ATOM     10  C   UNL d   1      10.042   8.955   3.770  0.00  0.00     0.095 A 
ATOM     11  O   UNL d   1      10.173   9.074   4.755  0.00  0.00    -0.309 OA
ATOM     12  C   UNL d   1       9.765   8.065   3.408  0.00  0.00     0.081 A 
ATOM     13  C   UNL d   1      10.027   8.304   5.376  0.00  0.00     0.090 A 
ATOM     14  C   UNL d   1       9.750   7.415   5.013  0.00  0.00     0.094 A 
ATOM     15  C   UNL d   1       9.619   7.295   4.029  0.00  0.00     0.190 A 
ATOM     16  O   UNL d   1       9.342   6.405   3.666  0.00  0.00    -0.287 OA
ATOM     17  C   UNL d   1       9.625   7.925   2.385  0.00  0.00     0.085 A 
ATOM     18  C   UNL d   1       9.775   8.722   1.732  0.00  0.00     0.074 A 
BRANCH  13  19
ATOM     19  C   UNL d   1      10.158   8.423   6.360  0.00  0.00    -0.002 A 
ATOM     20  C   UNL d   1       9.370   8.402   6.976  0.00  0.00     0.017 A 
ATOM     21  C   UNL d   1       9.502   8.521   7.960  0.00  0.00     0.037 A 
ATOM     22  C   UNL d   1      10.420   8.662   8.328  0.00  0.00     0.065 A 
ATOM     23  C   UNL d   1      11.208   8.684   7.713  0.00  0.00     0.037 A 
ATOM     24  C   UNL d   1      11.077   8.565   6.728  0.00  0.00     0.017 A 
BRANCH  22  25
ATOM     25  O   UNL d   1      10.551   8.782   9.313  0.00  0.00    -0.361 OA
ATOM     26  H   UNL d   1      10.093   9.012   9.661  0.00  0.00     0.217 HD
ENDBRANCH  22  25
ENDBRANCH  13  19
BRANCH  17  27
ATOM     27  O   UNL d   1       9.348   7.031   2.033  0.00  0.00    -0.360 OA
ATOM     28  H   UNL d   1       9.330   6.541   2.413  0.00  0.00     0.217 HD
ENDBRANCH  17  27
ENDBRANCH   7   8
ENDBRANCH   5   7
BRANCH   2  29
ATOM     29  O   UNL d   1      10.502  11.524  -0.152  0.00  0.00    -0.346 OA
BRANCH  29  30
ATOM     30  C   UNL d   1      11.127  12.172   0.282  0.00  0.00     0.292 A 
ATOM     31  O   UNL d   1      10.767  12.909   0.855  0.00  0.00    -0.351 OA
ATOM     32  C   UNL d   1      11.393  13.557   1.289  0.00  0.00     0.152 A 
ATOM     33  C   UNL d   1      12.379  13.468   1.150  0.00  0.00     0.178 A 
ATOM     34  C   UNL d   1      11.032  14.293   1.861  0.00  0.00     0.042 C 
ATOM     35  C   UNL d   1      12.740  12.732   0.578  0.00  0.00     0.183 A 
ATOM     36  C   UNL d   1      12.114  12.084   0.144  0.00  0.00     0.204 A 
BRANCH  33  37
ATOM     37  O   UNL d   1      13.005  14.116   1.584  0.00  0.00    -0.390 OA
ATOM     38  H   UNL d   1      12.816  14.451   2.071  0.00  0.00     0.210 HD
ENDBRANCH  33  37
BRANCH  35  39
ATOM     39  O   UNL d   1      13.726  12.643   0.440  0.00  0.00    -0.390 OA
ATOM     40  H   UNL d   1      14.062  13.138   0.275  0.00  0.00     0.210 HD
ENDBRANCH  35  39
BRANCH  36  41
ATOM     41  O   UNL d   1      12.474  11.347  -0.428  0.00  0.00    -0.388 OA
ATOM     42  H   UNL d   1      13.069  11.355  -0.606  0.00  0.00     0.210 HD
ENDBRANCH  36  41
ENDBRANCH  29  30
ENDBRANCH   2  29
BRANCH   6  43
ATOM     43  C   UNL d   1       6.807  11.034   1.300  0.00  0.00     0.198 C 
BRANCH  43  44
ATOM     44  O   UNL d   1       6.571  11.398   2.201  0.00  0.00    -0.398 OA
ATOM     45  H   UNL d   1       6.627  12.005   2.315  0.00  0.00     0.209 HD
ENDBRANCH  43  44
ENDBRANCH   6  43
BRANCH   3  46
ATOM     46  O   UNL d   1       8.945  12.382  -1.069  0.00  0.00    -0.390 OA
ATOM     47  H   UNL d   1       8.519  12.385  -1.519  0.00  0.00     0.210 HD
ENDBRANCH   3  46
BRANCH   4  48
ATOM     48  O   UNL d   1       7.098  12.136  -0.343  0.00  0.00    -0.390 OA
ATOM     49  H   UNL d   1       7.010  12.051  -0.951  0.00  0.00     0.210 HD
ENDBRANCH   4  48
TORSDOF 14
ENDMDL
MODEL 3
REMARK VINA RESULT:    -9.136      5.552      9.421
REMARK INTER + INTRA:          -3.984
REMARK INTER:                 -14.428
REMARK INTRA:                  10.443
REMARK UNBOUND:                10.493
REMARK  14 active torsions:
REMARK  status: ('A' for Active; 'I' for Inactive)
REMARK    1  A    between atoms: C_15  and  O_1 
REMARK    2  A    between atoms: C_18  and  O_1 
REMARK    3  A    between atoms: C_16  and  O_4 
REMARK    4  A    between atoms: C_20  and  O_5 
REMARK    5  A    between atoms: O_5  and  C_27 
REMARK    6  A    between atoms: C_17  and  O_6 
REMARK    7  A    between atoms: C_19  and  O_7 
REMARK    8  A    between atoms: C_22  and  O_8 
REMARK    9  A    between atoms: C_23  and  O_9 
REMARK   10  A    between atoms: O_10  and  C_25 
REMARK   11  A    between atoms: O_12  and  C_31 
REMARK   12  A    between atoms: O_14  and  C_41 
REMARK   13  A    between atoms: C_21  and  C_25 
REMARK   14  A    between atoms: C_34  and  C_36 
ROOT
ATOM      1  O   UNL d   1       9.465  10.182   1.046  0.00  0.00    -0.348 OA
ATOM      2  C   UNL d   1       8.455  11.542   0.682  0.00  0.00     0.211 A 
ATOM      3  C   UNL d   1       8.138  11.084  -0.148  0.00  0.00     0.183 A 
ATOM      4  C   UNL d   1       8.484  10.175  -0.382  0.00  0.00     0.180 A 
ATOM      5  C   UNL d   1       9.119  11.091   1.279  0.00  0.00     0.298 A 
ATOM      6  C   UNL d   1       9.147   9.724   0.215  0.00  0.00     0.179 A 
ENDROOT
BRANCH   5   7
ATOM      7  O   UNL d   1       9.436  11.548   2.110  0.00  0.00    -0.318 OA
BRANCH   7   8
ATOM      8  C   UNL d   1      10.080  11.087   2.720  0.00  0.00     0.077 A 
ATOM      9  C   UNL d   1       9.769  10.756   3.658  0.00  0.00     0.075 A 
ATOM     10  C   UNL d   1      10.448  10.277   4.285  0.00  0.00     0.095 A 
ATOM     11  O   UNL d   1      10.142   9.962   5.184  0.00  0.00    -0.309 OA
ATOM     12  C   UNL d   1      11.395  10.129   4.000  0.00  0.00     0.081 A 
ATOM     13  C   UNL d   1      10.783   9.500   5.797  0.00  0.00     0.090 A 
ATOM     14  C   UNL d   1      11.729   9.353   5.511  0.00  0.00     0.094 A 
ATOM     15  C   UNL d   1      12.036   9.667   4.613  0.00  0.00     0.190 A 
ATOM     16  O   UNL d   1      12.982   9.519   4.327  0.00  0.00    -0.287 OA
ATOM     17  C   UNL d   1      11.728  10.451   3.067  0.00  0.00     0.085 A 
ATOM     18  C   UNL d   1      11.067  10.933   2.423  0.00  0.00     0.074 A 
BRANCH  13  19
ATOM     19  C   UNL d   1      10.477   9.186   6.696  0.00  0.00    -0.002 A 
ATOM     20  C   UNL d   1       9.628   8.664   6.781  0.00  0.00     0.017 A 
ATOM     21  C   UNL d   1       9.323   8.350   7.680  0.00  0.00     0.037 A 
ATOM     22  C   UNL d   1       9.866   8.557   8.494  0.00  0.00     0.065 A 
ATOM     23  C   UNL d   1      10.715   9.079   8.408  0.00  0.00     0.037 A 
ATOM     24  C   UNL d   1      11.021   9.394   7.509  0.00  0.00     0.017 A 
BRANCH  22  25
ATOM     25  O   UNL d   1       9.560   8.243   9.393  0.00  0.00    -0.361 OA
ATOM     26  H   UNL d   1       9.621   8.612   9.887  0.00  0.00     0.217 HD
ENDBRANCH  22  25
ENDBRANCH  13  19
BRANCH  17  27
ATOM     27  O   UNL d   1      12.677  10.298   2.792  0.00  0.00    -0.360 OA
ATOM     28  H   UNL d   1      12.881   9.721   2.688  0.00  0.00     0.217 HD
ENDBRANCH  17  27
ENDBRANCH   7   8
ENDBRANCH   5   7
BRANCH   2  29
ATOM     29  O   UNL d   1       8.110  12.451   0.915  0.00  0.00    -0.346 OA
BRANCH  29  30
ATOM     30  C   UNL d   1       7.303  12.544   1.499  0.00  0.00     0.292 A 
ATOM     31  O   UNL d   1       6.569  11.867   1.449  0.00  0.00    -0.351 OA
ATOM     32  C   UNL d   1       5.762  11.960   2.033  0.00  0.00     0.152 A 
ATOM     33  C   UNL d   1       5.689  12.731   2.665  0.00  0.00     0.178 A 
ATOM     34  C   UNL d   1       5.028  11.282   1.983  0.00  0.00     0.042 C 
ATOM     35  C   UNL d   1       6.423  13.408   2.715  0.00  0.00     0.183 A 
ATOM     36  C   UNL d   1       7.230  13.315   2.132  0.00  0.00     0.204 A 
BRANCH  33  37
ATOM     37  O   UNL d   1       4.882  12.824   3.249  0.00  0.00    -0.390 OA
ATOM     38  H   UNL d   1       4.371  12.495   3.126  0.00  0.00     0.210 HD
ENDBRANCH  33  37
BRANCH  35  39
ATOM     39  O   UNL d   1       6.350  14.179   3.348  0.00  0.00    -0.390 OA
ATOM     40  H   UNL d   1       6.684  14.693   3.251  0.00  0.00     0.210 HD
ENDBRANCH  35  39
BRANCH  36  41
ATOM     41  O   UNL d   1       7.964  13.992   2.181  0.00  0.00    -0.388 OA
ATOM     42  H   UNL d   1       7.848  14.586   2.043  0.00  0.00     0.210 HD
ENDBRANCH  36  41
ENDBRANCH  29  30
ENDBRANCH   2  29
BRANCH   6  43
ATOM     43  C   UNL d   1       9.493   8.815  -0.018  0.00  0.00     0.198 C 
BRANCH  43  44
ATOM     44  O   UNL d   1       9.532   8.101   0.680  0.00  0.00    -0.398 OA
ATOM     45  H   UNL d   1       9.243   8.182   1.223  0.00  0.00     0.209 HD
ENDBRANCH  43  44
ENDBRANCH   6  43
BRANCH   3  46
ATOM     46  O   UNL d   1       7.475  11.535  -0.746  0.00  0.00    -0.390 OA
ATOM     47  H   UNL d   1       7.337  11.289  -1.298  0.00  0.00     0.210 HD
ENDBRANCH   3  46
BRANCH   4  48
ATOM     48  O   UNL d   1       8.166   9.718  -1.212  0.00  0.00    -0.390 OA
ATOM     49  H   UNL d   1       7.633   9.401  -1.207  0.00  0.00     0.210 HD
ENDBRANCH   4  48
TORSDOF 14
ENDMDL
MODEL 4
REMARK VINA RESULT:    -8.989      4.113      7.979
REMARK INTER + INTRA:          -3.751
REMARK INTER:                 -13.529
REMARK INTRA:                   9.779
REMARK UNBOUND:                10.493
REMARK  14 active torsions:
REMARK  status: ('A' for Active; 'I' for Inactive)
REMARK    1  A    between atoms: C_15  and  O_1 
REMARK    2  A    between atoms: C_18  and  O_1 
REMARK    3  A    between atoms: C_16  and  O_4 
REMARK    4  A    between atoms: C_20  and  O_5 
REMARK    5  A    between atoms: O_5  and  C_27 
REMARK    6  A    between atoms: C_17  and  O_6 
REMARK    7  A    between atoms: C_19  and  O_7 
REMARK    8  A    between atoms: C_22  and  O_8 
REMARK    9  A    between atoms: C_23  and  O_9 
REMARK   10  A    between atoms: O_10  and  C_25 
REMARK   11  A    between atoms: O_12  and  C_31 
REMARK   12  A    between atoms: O_14  and  C_41 
REMARK   13  A    between atoms: C_21  and  C_25 
REMARK   14  A    between atoms: C_34  and  C_36 
ROOT
ATOM      1  O   UNL d   1      11.491  10.348   1.204  0.00  0.00    -0.348 OA
ATOM      2  C   UNL d   1      10.634  11.471   0.201  0.00  0.00     0.211 A 
ATOM      3  C   UNL d   1      11.483  11.688  -0.281  0.00  0.00     0.183 A 
ATOM      4  C   UNL d   1      12.335  11.236  -0.020  0.00  0.00     0.180 A 
ATOM      5  C   UNL d   1      10.638  10.801   0.943  0.00  0.00     0.298 A 
ATOM      6  C   UNL d   1      12.340  10.565   0.722  0.00  0.00     0.179 A 
ENDROOT
BRANCH   5   7
ATOM      7  O   UNL d   1       9.789  10.583   1.425  0.00  0.00    -0.318 OA
BRANCH   7   8
ATOM      8  C   UNL d   1       9.749   9.791   2.035  0.00  0.00     0.077 A 
ATOM      9  C   UNL d   1      10.007   9.889   3.040  0.00  0.00     0.075 A 
ATOM     10  C   UNL d   1       9.962   9.058   3.665  0.00  0.00     0.095 A 
ATOM     11  O   UNL d   1      10.212   9.159   4.628  0.00  0.00    -0.309 OA
ATOM     12  C   UNL d   1       9.674   8.166   3.315  0.00  0.00     0.081 A 
ATOM     13  C   UNL d   1      10.173   8.370   5.241  0.00  0.00     0.090 A 
ATOM     14  C   UNL d   1       9.884   7.479   4.891  0.00  0.00     0.094 A 
ATOM     15  C   UNL d   1       9.635   7.377   3.928  0.00  0.00     0.190 A 
ATOM     16  O   UNL d   1       9.346   6.486   3.577  0.00  0.00    -0.287 OA
ATOM     17  C   UNL d   1       9.411   8.045   2.314  0.00  0.00     0.085 A 
ATOM     18  C   UNL d   1       9.449   8.863   1.670  0.00  0.00     0.074 A 
BRANCH  13  19
ATOM     19  C   UNL d   1      10.422   8.471   6.204  0.00  0.00    -0.002 A 
ATOM     20  C   UNL d   1       9.710   8.500   6.906  0.00  0.00     0.017 A 
ATOM     21  C   UNL d   1       9.960   8.601   7.868  0.00  0.00     0.037 A 
ATOM     22  C   UNL d   1      10.922   8.674   8.130  0.00  0.00     0.065 A 
ATOM     23  C   UNL d   1      11.635   8.645   7.429  0.00  0.00     0.037 A 
ATOM     24  C   UNL d   1      11.385   8.544   6.466  0.00  0.00     0.017 A 
BRANCH  22  25
ATOM     25  O   UNL d   1      11.172   8.775   9.094  0.00  0.00    -0.361 OA
ATOM     26  H   UNL d   1      11.075   8.308   9.489  0.00  0.00     0.217 HD
ENDBRANCH  22  25
ENDBRANCH  13  19
BRANCH  17  27
ATOM     27  O   UNL d   1       9.124   7.149   1.975  0.00  0.00    -0.360 OA
ATOM     28  H   UNL d   1       9.376   6.634   2.210  0.00  0.00     0.217 HD
ENDBRANCH  17  27
ENDBRANCH   7   8
ENDBRANCH   5   7
BRANCH   2  29
ATOM     29  O   UNL d   1       9.781  11.924  -0.059  0.00  0.00    -0.346 OA
BRANCH  29  30
ATOM     30  C   UNL d   1       9.441  12.696   0.478  0.00  0.00     0.292 A 
ATOM     31  O   UNL d   1      10.063  13.202   1.075  0.00  0.00    -0.351 OA
ATOM     32  C   UNL d   1       9.723  13.974   1.612  0.00  0.00     0.152 A 
ATOM     33  C   UNL d   1       8.761  14.240   1.552  0.00  0.00     0.178 A 
ATOM     34  C   UNL d   1      10.345  14.480   2.210  0.00  0.00     0.042 C 
ATOM     35  C   UNL d   1       8.139  13.733   0.954  0.00  0.00     0.183 A 
ATOM     36  C   UNL d   1       8.479  12.961   0.418  0.00  0.00     0.204 A 
BRANCH  33  37
ATOM     37  O   UNL d   1       8.420  15.012   2.089  0.00  0.00    -0.390 OA
ATOM     38  H   UNL d   1       8.023  15.415   1.835  0.00  0.00     0.210 HD
ENDBRANCH  33  37
BRANCH  35  39
ATOM     39  O   UNL d   1       7.176  13.999   0.894  0.00  0.00    -0.390 OA
ATOM     40  H   UNL d   1       6.796  13.699   0.507  0.00  0.00     0.210 HD
ENDBRANCH  35  39
BRANCH  36  41
ATOM     41  O   UNL d   1       7.857  12.455  -0.180  0.00  0.00    -0.388 OA
ATOM     42  H   UNL d   1       7.250  12.584  -0.177  0.00  0.00     0.210 HD
ENDBRANCH  36  41
ENDBRANCH  29  30
ENDBRANCH   2  29
BRANCH   6  43
ATOM     43  C   UNL d   1      13.192  10.113   0.982  0.00  0.00     0.198 C 
BRANCH  43  44
ATOM     44  O   UNL d   1      13.192   9.140   1.213  0.00  0.00    -0.398 OA
ATOM     45  H   UNL d   1      13.252   8.715   0.766  0.00  0.00     0.209 HD
ENDBRANCH  43  44
ENDBRANCH   6  43
BRANCH   3  46
ATOM     46  O   UNL d   1      11.479  12.359  -1.023  0.00  0.00    -0.390 OA
ATOM     47  H   UNL d   1      11.553  12.172  -1.609  0.00  0.00     0.210 HD
ENDBRANCH   3  46
BRANCH   4  48
ATOM     48  O   UNL d   1      13.184  11.453  -0.502  0.00  0.00    -0.390 OA
ATOM     49  H   UNL d   1      13.206  11.422  -1.121  0.00  0.00     0.210 HD
ENDBRANCH   4  48
TORSDOF 14
ENDMDL
MODEL 5
REMARK VINA RESULT:    -8.977      4.589      7.577
REMARK INTER + INTRA:          -3.732
REMARK INTER:                 -13.561
REMARK INTRA:                   9.830
REMARK UNBOUND:                10.493
REMARK  14 active torsions:
REMARK  status: ('A' for Active; 'I' for Inactive)
REMARK    1  A    between atoms: C_15  and  O_1 
REMARK    2  A    between atoms: C_18  and  O_1 
REMARK    3  A    between atoms: C_16  and  O_4 
REMARK    4  A    between atoms: C_20  and  O_5 
REMARK    5  A    between atoms: O_5  and  C_27 
REMARK    6  A    between atoms: C_17  and  O_6 
REMARK    7  A    between atoms: C_19  and  O_7 
REMARK    8  A    between atoms: C_22  and  O_8 
REMARK    9  A    between atoms: C_23  and  O_9 
REMARK   10  A    between atoms: O_10  and  C_25 
REMARK   11  A    between atoms: O_12  and  C_31 
REMARK   12  A    between atoms: O_14  and  C_41 
REMARK   13  A    between atoms: C_21  and  C_25 
REMARK   14  A    between atoms: C_34  and  C_36 
ROOT
ATOM      1  O   UNL d   1       8.797  11.005   1.530  0.00  0.00    -0.348 OA
ATOM      2  C   UNL d   1      10.029  12.215   1.663  0.00  0.00     0.211 A 
ATOM      3  C   UNL d   1       9.342  12.929   1.535  0.00  0.00     0.183 A 
ATOM      4  C   UNL d   1       8.382  12.682   1.404  0.00  0.00     0.180 A 
ATOM      5  C   UNL d   1       9.757  11.253   1.661  0.00  0.00     0.298 A 
ATOM      6  C   UNL d   1       8.109  11.720   1.402  0.00  0.00     0.179 A 
ENDROOT
BRANCH   5   7
ATOM      7  O   UNL d   1      10.445  10.538   1.790  0.00  0.00    -0.318 OA
BRANCH   7   8
ATOM      8  C   UNL d   1      10.248   9.756   2.382  0.00  0.00     0.077 A 
ATOM      9  C   UNL d   1      10.323   9.850   3.417  0.00  0.00     0.075 A 
ATOM     10  C   UNL d   1      10.116   9.029   4.023  0.00  0.00     0.095 A 
ATOM     11  O   UNL d   1      10.190   9.126   5.016  0.00  0.00    -0.309 OA
ATOM     12  C   UNL d   1       9.847   8.151   3.626  0.00  0.00     0.081 A 
ATOM     13  C   UNL d   1       9.995   8.347   5.611  0.00  0.00     0.090 A 
ATOM     14  C   UNL d   1       9.726   7.470   5.214  0.00  0.00     0.094 A 
ATOM     15  C   UNL d   1       9.652   7.372   4.221  0.00  0.00     0.190 A 
ATOM     16  O   UNL d   1       9.383   6.495   3.824  0.00  0.00    -0.287 OA
ATOM     17  C   UNL d   1       9.766   8.035   2.594  0.00  0.00     0.085 A 
ATOM     18  C   UNL d   1       9.968   8.842   1.968  0.00  0.00     0.074 A 
BRANCH  13  19
ATOM     19  C   UNL d   1      10.068   8.444   6.604  0.00  0.00    -0.002 A 
ATOM     20  C   UNL d   1       9.246   8.416   7.172  0.00  0.00     0.017 A 
ATOM     21  C   UNL d   1       9.320   8.514   8.164  0.00  0.00     0.037 A 
ATOM     22  C   UNL d   1      10.216   8.639   8.589  0.00  0.00     0.065 A 
ATOM     23  C   UNL d   1      11.039   8.668   8.021  0.00  0.00     0.037 A 
ATOM     24  C   UNL d   1      10.965   8.570   7.028  0.00  0.00     0.017 A 
BRANCH  22  25
ATOM     25  O   UNL d   1      10.290   8.737   9.582  0.00  0.00    -0.361 OA
ATOM     26  H   UNL d   1       9.810   8.957   9.908  0.00  0.00     0.217 HD
ENDBRANCH  22  25
ENDBRANCH  13  19
BRANCH  17  27
ATOM     27  O   UNL d   1       9.497   7.152   2.208  0.00  0.00    -0.360 OA
ATOM     28  H   UNL d   1       9.187   7.131   1.670  0.00  0.00     0.217 HD
ENDBRANCH  17  27
ENDBRANCH   7   8
ENDBRANCH   5   7
BRANCH   2  29
ATOM     29  O   UNL d   1      10.989  12.462   1.794  0.00  0.00    -0.346 OA
BRANCH  29  30
ATOM     30  C   UNL d   1      11.623  12.434   1.021  0.00  0.00     0.292 A 
ATOM     31  O   UNL d   1      11.270  12.430   0.085  0.00  0.00    -0.351 OA
ATOM     32  C   UNL d   1      11.903  12.402  -0.688  0.00  0.00     0.152 A 
ATOM     33  C   UNL d   1      12.889  12.379  -0.526  0.00  0.00     0.178 A 
ATOM     34  C   UNL d   1      11.550  12.397  -1.624  0.00  0.00     0.042 C 
ATOM     35  C   UNL d   1      13.243  12.383   0.410  0.00  0.00     0.183 A 
ATOM     36  C   UNL d   1      12.609  12.411   1.183  0.00  0.00     0.204 A 
BRANCH  33  37
ATOM     37  O   UNL d   1      13.523  12.351  -1.299  0.00  0.00    -0.390 OA
ATOM     38  H   UNL d   1      14.033  11.999  -1.270  0.00  0.00     0.210 HD
ENDBRANCH  33  37
BRANCH  35  39
ATOM     39  O   UNL d   1      14.229  12.360   0.572  0.00  0.00    -0.390 OA
ATOM     40  H   UNL d   1      14.448  12.175   1.122  0.00  0.00     0.210 HD
ENDBRANCH  35  39
BRANCH  36  41
ATOM     41  O   UNL d   1      12.962  12.416   2.119  0.00  0.00    -0.388 OA
ATOM     42  H   UNL d   1      13.208  11.900   2.360  0.00  0.00     0.210 HD
ENDBRANCH  36  41
ENDBRANCH  29  30
ENDBRANCH   2  29
BRANCH   6  43
ATOM     43  C   UNL d   1       7.149  11.472   1.271  0.00  0.00     0.198 C 
BRANCH  43  44
ATOM     44  O   UNL d   1       6.880  10.911   0.489  0.00  0.00    -0.398 OA
ATOM     45  H   UNL d   1       6.280  10.836   0.352  0.00  0.00     0.209 HD
ENDBRANCH  43  44
ENDBRANCH   6  43
BRANCH   3  46
ATOM     46  O   UNL d   1       9.614  13.892   1.537  0.00  0.00    -0.390 OA
ATOM     47  H   UNL d   1      10.209  14.045   1.454  0.00  0.00     0.210 HD
ENDBRANCH   3  46
BRANCH   4  48
ATOM     48  O   UNL d   1       7.694  13.396   1.275  0.00  0.00    -0.390 OA
ATOM     49  H   UNL d   1       7.869  13.968   1.111  0.00  0.00     0.210 HD
ENDBRANCH   4  48
TORSDOF 14
ENDMDL
