MODEL 1
REMARK VINA RESULT:    -2.914      0.000      0.000
REMARK INTER + INTRA:          -2.914
REMARK INTER:                  -2.914
REMARK INTRA:                   0.000
REMARK UNBOUND:                 0.000
REMARK  0 active torsions:
REMARK  status: ('A' for Active; 'I' for Inactive)
ROOT
ATOM      1  O   UNL d   1       3.010   9.638  29.149  0.00  0.00    -0.648 OA
ATOM      2  O   UNL d   1       2.748  11.248  29.732  0.00  0.00    -0.648 OA
ATOM      3  C   UNL d   1       4.046  10.926  28.631  0.00  0.00     0.129 C 
ATOM      4  C   UNL d   1       3.268  10.604  29.171  0.00  0.00     0.168 C 
ENDROOT
TORSDOF 0
ENDMDL
MODEL 2
REMARK VINA RESULT:    -2.793     15.266     15.507
REMARK INTER + INTRA:          -2.793
REMARK INTER:                  -2.793
REMARK INTRA:                   0.000
REMARK UNBOUND:                 0.000
REMARK  0 active torsions:
REMARK  status: ('A' for Active; 'I' for Inactive)
ROOT
ATOM      1  O   UNL d   1      -6.590   7.937  17.270  0.00  0.00    -0.648 OA
ATOM      2  O   UNL d   1      -5.666   6.571  17.800  0.00  0.00    -0.648 OA
ATOM      3  C   UNL d   1      -7.312   6.752  18.307  0.00  0.00     0.129 C 
ATOM      4  C   UNL d   1      -6.523   7.087  17.792  0.00  0.00     0.168 C 
ENDROOT
TORSDOF 0
ENDMDL
MODEL 3
REMARK VINA RESULT:    -2.589     15.467     15.641
REMARK INTER + INTRA:          -2.589
REMARK INTER:                  -2.589
REMARK INTRA:                   0.000
REMARK UNBOUND:                 0.000
REMARK  0 active torsions:
REMARK  status: ('A' for Active; 'I' for Inactive)
ROOT
ATOM      1  O   UNL d   1       4.201   0.057  17.212  0.00  0.00    -0.648 OA
ATOM      2  O   UNL d   1       2.605   0.629  17.567  0.00  0.00    -0.648 OA
ATOM      3  C   UNL d   1       3.270  -0.696  18.463  0.00  0.00     0.129 C 
ATOM      4  C   UNL d   1       3.359  -0.003  17.747  0.00  0.00     0.168 C 
ENDROOT
TORSDOF 0
ENDMDL
MODEL 4
REMARK VINA RESULT:    -2.551     19.830     19.919
REMARK INTER + INTRA:          -2.551
REMARK INTER:                  -2.551
REMARK INTRA:                   0.000
REMARK UNBOUND:                 0.000
REMARK  0 active torsions:
REMARK  status: ('A' for Active; 'I' for Inactive)
ROOT
ATOM      1  O   UNL d   1       7.198  -8.709  32.909  0.00  0.00    -0.648 OA
ATOM      2  O   UNL d   1       8.452  -8.203  33.991  0.00  0.00    -0.648 OA
ATOM      3  C   UNL d   1       6.794  -7.893  34.382  0.00  0.00     0.129 C 
ATOM      4  C   UNL d   1       7.481  -8.268  33.761  0.00  0.00     0.168 C 
ENDROOT
TORSDOF 0
ENDMDL
MODEL 5
REMARK VINA RESULT:    -2.530     25.543     25.880
REMARK INTER + INTRA:          -2.530
REMARK INTER:                  -2.530
REMARK INTRA:                   0.000
REMARK UNBOUND:                 0.000
REMARK  0 active torsions:
REMARK  status: ('A' for Active; 'I' for Inactive)
ROOT
ATOM      1  O   UNL d   1      -5.536  -3.388  10.204  0.00  0.00    -0.648 OA
ATOM      2  O   UNL d   1      -6.317  -3.229   8.667  0.00  0.00    -0.648 OA
ATOM      3  C   UNL d   1      -7.265  -3.342  10.112  0.00  0.00     0.129 C 
ATOM      4  C   UNL d   1      -6.373  -3.320   9.661  0.00  0.00     0.168 C 
ENDROOT
TORSDOF 0
ENDMDL
