MODEL 1
REMARK VINA RESULT:    -6.967      0.000      0.000
REMARK INTER + INTRA:          -7.284
REMARK INTER:                  -8.601
REMARK INTRA:                   1.317
REMARK UNBOUND:                 1.312
REMARK  6 active torsions:
REMARK  status: ('A' for Active; 'I' for Inactive)
REMARK    1  A    between atoms: C_22  and  O_1 
REMARK    2  A    between atoms: C_24  and  O_2 
REMARK    3  A    between atoms: O_3  and  C_30 
REMARK    4  A    between atoms: O_4  and  C_33 
REMARK    5  A    between atoms: C_14  and  C_30 
REMARK    6  A    between atoms: C_19  and  C_33 
ROOT
ATOM      1  C   UNL d   1      38.466 -13.533  25.355  0.00  0.00    -0.028 A 
ATOM      2  C   UNL d   1      38.358 -13.518  24.361  0.00  0.00     0.007 A 
ATOM      3  C   UNL d   1      38.330 -14.403  23.812  0.00  0.00    -0.033 A 
ATOM      4  C   UNL d   1      38.491 -12.676  25.869  0.00  0.00    -0.013 A 
ATOM      5  C   UNL d   1      38.415 -15.315  24.305  0.00  0.00     0.007 A 
ATOM      6  C   UNL d   1      38.553 -14.435  25.869  0.00  0.00     0.011 A 
ATOM      7  C   UNL d   1      38.408 -11.803  25.389  0.00  0.00    -0.069 A 
ATOM      8  C   UNL d   1      38.528 -15.332  25.340  0.00  0.00     0.007 A 
ATOM      9  C   UNL d   1      38.389 -16.251  23.754  0.00  0.00     0.010 A 
ATOM     10  C   UNL d   1      38.433 -10.901  25.910  0.00  0.00     0.038 A 
ATOM     11  C   UNL d   1      38.275 -12.644  23.881  0.00  0.00     0.033 A 
ATOM     12  C   UNL d   1      38.212 -14.360  22.734  0.00  0.00     0.044 A 
ATOM     13  C   UNL d   1      38.604 -12.709  26.904  0.00  0.00     0.016 A 
ATOM     14  C   UNL d   1      38.545 -10.910  26.946  0.00  0.00     0.053 A 
ATOM     15  C   UNL d   1      38.578 -13.890  26.282  0.00  0.00     0.016 C 
ATOM     16  C   UNL d   1      38.631 -11.820  27.446  0.00  0.00     0.022 A 
ATOM     17  C   UNL d   1      38.272 -16.234  22.676  0.00  0.00     0.157 A 
ATOM     18  C   UNL d   1      38.301 -11.787  24.395  0.00  0.00    -0.022 A 
ATOM     19  C   UNL d   1      38.183 -15.282  22.162  0.00  0.00     0.148 A 
ATOM     20  C   UNL d   1      38.248 -13.525  23.339  0.00  0.00     0.016 C 
ATOM     21  C   UNL d   1      38.595 -13.331  26.618  0.00  0.00     0.021 C 
ATOM     22  C   UNL d   1      38.341  -9.967  25.368  0.00  0.00    -0.005 A 
ATOM     23  C   UNL d   1      38.573  -9.984  27.511  0.00  0.00     0.021 A 
ATOM     24  C   UNL d   1      38.367  -9.028  25.911  0.00  0.00    -0.014 A 
ATOM     25  C   UNL d   1      38.499 -16.760  24.608  0.00  0.00     0.020 C 
ATOM     26  C   UNL d   1      38.484  -9.036  26.990  0.00  0.00     0.006 A 
ATOM     27  C   UNL d   1      38.234  -9.969  24.373  0.00  0.00     0.011 C 
ATOM     28  C   UNL d   1      38.283  -8.160  25.421  0.00  0.00     0.010 C 
ENDROOT
BRANCH   9  29
ATOM     29  C   UNL d   1      38.422 -17.250  23.739  0.00  0.00     0.176 C 
BRANCH  29  30
ATOM     30  O   UNL d   1      38.950 -17.743  24.430  0.00  0.00    -0.400 OA
ATOM     31  H   UNL d   1      38.791 -18.322  24.587  0.00  0.00     0.209 HD
ENDBRANCH  29  30
ENDBRANCH   9  29
BRANCH  17  32
ATOM     32  O   UNL d   1      38.246 -17.088  22.159  0.00  0.00    -0.392 OA
ATOM     33  H   UNL d   1      38.774 -17.381  22.016  0.00  0.00     0.210 HD
ENDBRANCH  17  32
BRANCH  19  34
ATOM     34  O   UNL d   1      38.075 -15.255  21.169  0.00  0.00    -0.393 OA
ATOM     35  H   UNL d   1      37.583 -14.972  20.918  0.00  0.00     0.210 HD
ENDBRANCH  19  34
BRANCH  14  36
ATOM     36  C   UNL d   1      38.652 -10.917  27.940  0.00  0.00     0.149 C 
ATOM     37  O   UNL d   1      37.846 -10.967  28.529  0.00  0.00    -0.649 OA
BRANCH  36  38
ATOM     38  O   UNL d   1      39.565 -10.875  28.345  0.00  0.00    -0.776 OA
ATOM     39  H   UNL d   1      39.647 -10.607  28.898  0.00  0.00     0.167 HD
ENDBRANCH  36  38
ENDBRANCH  14  36
TORSDOF 6
ENDMDL
MODEL 2
REMARK VINA RESULT:    -6.672      1.536      5.738
REMARK INTER + INTRA:          -6.921
REMARK INTER:                  -8.228
REMARK INTRA:                   1.307
REMARK UNBOUND:                 1.312
REMARK  6 active torsions:
REMARK  status: ('A' for Active; 'I' for Inactive)
REMARK    1  A    between atoms: C_22  and  O_1 
REMARK    2  A    between atoms: C_24  and  O_2 
REMARK    3  A    between atoms: O_3  and  C_30 
REMARK    4  A    between atoms: O_4  and  C_33 
REMARK    5  A    between atoms: C_14  and  C_30 
REMARK    6  A    between atoms: C_19  and  C_33 
ROOT
ATOM      1  C   UNL d   1      38.361 -12.118  25.861  0.00  0.00    -0.028 A 
ATOM      2  C   UNL d   1      38.352 -11.474  25.095  0.00  0.00     0.007 A 
ATOM      3  C   UNL d   1      38.358 -10.446  25.261  0.00  0.00    -0.033 A 
ATOM      4  C   UNL d   1      38.355 -13.102  25.687  0.00  0.00    -0.013 A 
ATOM      5  C   UNL d   1      38.373 -10.083  26.236  0.00  0.00     0.007 A 
ATOM      6  C   UNL d   1      38.377 -11.777  26.844  0.00  0.00     0.011 A 
ATOM      7  C   UNL d   1      38.340 -13.444  24.747  0.00  0.00    -0.069 A 
ATOM      8  C   UNL d   1      38.383 -10.753  27.034  0.00  0.00     0.007 A 
ATOM      9  C   UNL d   1      38.380  -9.015  26.433  0.00  0.00     0.010 A 
ATOM     10  C   UNL d   1      38.334 -14.467  24.549  0.00  0.00     0.038 A 
ATOM     11  C   UNL d   1      38.337 -11.816  24.155  0.00  0.00     0.033 A 
ATOM     12  C   UNL d   1      38.348  -9.767  24.414  0.00  0.00     0.044 A 
ATOM     13  C   UNL d   1      38.365 -13.760  26.495  0.00  0.00     0.016 A 
ATOM     14  C   UNL d   1      38.343 -15.143  25.342  0.00  0.00     0.053 A 
ATOM     15  C   UNL d   1      38.374 -12.460  26.800  0.00  0.00     0.016 C 
ATOM     16  C   UNL d   1      38.359 -14.787  26.321  0.00  0.00     0.022 A 
ATOM     17  C   UNL d   1      38.370  -8.318  25.603  0.00  0.00     0.157 A 
ATOM     18  C   UNL d   1      38.331 -12.801  23.981  0.00  0.00    -0.022 A 
ATOM     19  C   UNL d   1      38.354  -8.696  24.587  0.00  0.00     0.148 A 
ATOM     20  C   UNL d   1      38.343 -10.795  24.324  0.00  0.00     0.016 C 
ATOM     21  C   UNL d   1      38.370 -13.103  26.687  0.00  0.00     0.021 C 
ATOM     22  C   UNL d   1      38.318 -14.813  23.522  0.00  0.00    -0.005 A 
ATOM     23  C   UNL d   1      38.337 -16.213  25.161  0.00  0.00     0.021 A 
ATOM     24  C   UNL d   1      38.311 -15.879  23.317  0.00  0.00    -0.014 A 
ATOM     25  C   UNL d   1      38.394  -9.194  27.418  0.00  0.00     0.020 C 
ATOM     26  C   UNL d   1      38.321 -16.583  24.142  0.00  0.00     0.006 A 
ATOM     27  C   UNL d   1      38.309 -14.155  22.768  0.00  0.00     0.011 C 
ATOM     28  C   UNL d   1      38.296 -16.209  22.373  0.00  0.00     0.010 C 
ENDROOT
BRANCH   9  29
ATOM     29  C   UNL d   1      38.392  -8.253  27.080  0.00  0.00     0.176 C 
BRANCH  29  30
ATOM     30  O   UNL d   1      38.732  -8.390  28.010  0.00  0.00    -0.400 OA
ATOM     31  H   UNL d   1      39.152  -8.001  28.247  0.00  0.00     0.209 HD
ENDBRANCH  29  30
ENDBRANCH   9  29
BRANCH  17  32
ATOM     32  O   UNL d   1      38.376  -7.333  25.773  0.00  0.00    -0.392 OA
ATOM     33  H   UNL d   1      38.488  -6.938  25.308  0.00  0.00     0.210 HD
ENDBRANCH  17  32
BRANCH  19  34
ATOM     34  O   UNL d   1      38.345  -8.062  23.814  0.00  0.00    -0.393 OA
ATOM     35  H   UNL d   1      38.181  -8.262  23.250  0.00  0.00     0.210 HD
ENDBRANCH  19  34
BRANCH  14  36
ATOM     36  C   UNL d   1      38.352 -15.792  26.102  0.00  0.00     0.149 C 
ATOM     37  O   UNL d   1      37.490 -16.131  26.479  0.00  0.00    -0.649 OA
BRANCH  36  38
ATOM     38  O   UNL d   1      39.222 -16.102  26.485  0.00  0.00    -0.776 OA
ATOM     39  H   UNL d   1      39.244 -16.323  27.064  0.00  0.00     0.167 HD
ENDBRANCH  36  38
ENDBRANCH  14  36
TORSDOF 6
ENDMDL
MODEL 3
REMARK VINA RESULT:    -6.637      1.169      6.268
REMARK INTER + INTRA:          -6.877
REMARK INTER:                  -8.186
REMARK INTRA:                   1.309
REMARK UNBOUND:                 1.312
REMARK  6 active torsions:
REMARK  status: ('A' for Active; 'I' for Inactive)
REMARK    1  A    between atoms: C_22  and  O_1 
REMARK    2  A    between atoms: C_24  and  O_2 
REMARK    3  A    between atoms: O_3  and  C_30 
REMARK    4  A    between atoms: O_4  and  C_33 
REMARK    5  A    between atoms: C_14  and  C_30 
REMARK    6  A    between atoms: C_19  and  C_33 
ROOT
ATOM      1  C   UNL d   1      38.476 -12.333  25.340  0.00  0.00    -0.028 A 
ATOM      2  C   UNL d   1      38.450 -12.545  26.317  0.00  0.00     0.007 A 
ATOM      3  C   UNL d   1      38.459 -11.785  27.029  0.00  0.00    -0.033 A 
ATOM      4  C   UNL d   1      38.467 -13.072  24.667  0.00  0.00    -0.013 A 
ATOM      5  C   UNL d   1      38.496 -10.792  26.721  0.00  0.00     0.007 A 
ATOM      6  C   UNL d   1      38.514 -11.346  25.008  0.00  0.00     0.011 A 
ATOM      7  C   UNL d   1      38.431 -14.024  24.971  0.00  0.00    -0.069 A 
ATOM      8  C   UNL d   1      38.524 -10.570  25.703  0.00  0.00     0.007 A 
ATOM      9  C   UNL d   1      38.507  -9.983  27.445  0.00  0.00     0.010 A 
ATOM     10  C   UNL d   1      38.421 -14.806  24.282  0.00  0.00     0.038 A 
ATOM     11  C   UNL d   1      38.414 -13.497  26.620  0.00  0.00     0.033 A 
ATOM     12  C   UNL d   1      38.430 -12.040  28.084  0.00  0.00     0.044 A 
ATOM     13  C   UNL d   1      38.495 -12.835  23.653  0.00  0.00     0.016 A 
ATOM     14  C   UNL d   1      38.449 -14.592  23.262  0.00  0.00     0.053 A 
ATOM     15  C   UNL d   1      38.510 -11.799  24.495  0.00  0.00     0.016 C 
ATOM     16  C   UNL d   1      38.486 -13.600  22.946  0.00  0.00     0.022 A 
ATOM     17  C   UNL d   1      38.478 -10.214  28.504  0.00  0.00     0.157 A 
ATOM     18  C   UNL d   1      38.405 -14.237  25.947  0.00  0.00    -0.022 A 
ATOM     19  C   UNL d   1      38.439 -11.249  28.826  0.00  0.00     0.148 A 
ATOM     20  C   UNL d   1      38.423 -12.740  27.326  0.00  0.00     0.016 C 
ATOM     21  C   UNL d   1      38.504 -12.281  24.055  0.00  0.00     0.021 C 
ATOM     22  C   UNL d   1      38.382 -15.830  24.635  0.00  0.00    -0.005 A 
ATOM     23  C   UNL d   1      38.439 -15.389  22.526  0.00  0.00     0.021 A 
ATOM     24  C   UNL d   1      38.371 -16.644  23.917  0.00  0.00    -0.014 A 
ATOM     25  C   UNL d   1      38.543  -9.314  26.703  0.00  0.00     0.020 C 
ATOM     26  C   UNL d   1      38.400 -16.422  22.855  0.00  0.00     0.006 A 
ATOM     27  C   UNL d   1      38.356 -16.024  25.616  0.00  0.00     0.011 C 
ATOM     28  C   UNL d   1      38.336 -17.592  24.232  0.00  0.00     0.010 C 
ENDROOT
BRANCH   9  29
ATOM     29  C   UNL d   1      38.533  -9.006  27.654  0.00  0.00     0.176 C 
BRANCH  29  30
ATOM     30  O   UNL d   1      38.896  -8.360  26.983  0.00  0.00    -0.400 OA
ATOM     31  H   UNL d   1      38.528  -7.923  26.742  0.00  0.00     0.209 HD
ENDBRANCH  29  30
ENDBRANCH   9  29
BRANCH  17  32
ATOM     32  O   UNL d   1      38.487  -9.477  29.180  0.00  0.00    -0.392 OA
ATOM     33  H   UNL d   1      37.955  -9.274  29.426  0.00  0.00     0.210 HD
ENDBRANCH  17  32
BRANCH  19  34
ATOM     34  O   UNL d   1      38.412 -11.473  29.800  0.00  0.00    -0.393 OA
ATOM     35  H   UNL d   1      37.867 -11.540  30.088  0.00  0.00     0.210 HD
ENDBRANCH  19  34
BRANCH  14  36
ATOM     36  C   UNL d   1      38.475 -14.387  22.284  0.00  0.00     0.149 C 
ATOM     37  O   UNL d   1      37.622 -14.275  21.775  0.00  0.00    -0.649 OA
BRANCH  36  38
ATOM     38  O   UNL d   1      39.353 -14.296  21.815  0.00  0.00    -0.776 OA
ATOM     39  H   UNL d   1      39.881 -14.394  22.124  0.00  0.00     0.167 HD
ENDBRANCH  36  38
ENDBRANCH  14  36
TORSDOF 6
ENDMDL
MODEL 4
REMARK VINA RESULT:    -6.305      3.661      5.586
REMARK INTER + INTRA:          -6.468
REMARK INTER:                  -7.775
REMARK INTRA:                   1.308
REMARK UNBOUND:                 1.312
REMARK  6 active torsions:
REMARK  status: ('A' for Active; 'I' for Inactive)
REMARK    1  A    between atoms: C_22  and  O_1 
REMARK    2  A    between atoms: C_24  and  O_2 
REMARK    3  A    between atoms: O_3  and  C_30 
REMARK    4  A    between atoms: O_4  and  C_33 
REMARK    5  A    between atoms: C_14  and  C_30 
REMARK    6  A    between atoms: C_19  and  C_33 
ROOT
ATOM      1  C   UNL d   1      37.947 -12.181  28.623  0.00  0.00    -0.028 A 
ATOM      2  C   UNL d   1      38.243 -11.983  29.558  0.00  0.00     0.007 A 
ATOM      3  C   UNL d   1      38.186 -12.710  30.302  0.00  0.00    -0.033 A 
ATOM      4  C   UNL d   1      38.008 -11.474  27.919  0.00  0.00    -0.013 A 
ATOM      5  C   UNL d   1      37.815 -13.655  30.069  0.00  0.00     0.007 A 
ATOM      6  C   UNL d   1      37.573 -13.119  28.368  0.00  0.00     0.011 A 
ATOM      7  C   UNL d   1      38.365 -10.568  28.150  0.00  0.00    -0.069 A 
ATOM      8  C   UNL d   1      37.507 -13.861  29.096  0.00  0.00     0.007 A 
ATOM      9  C   UNL d   1      37.745 -14.428  30.828  0.00  0.00     0.010 A 
ATOM     10  C   UNL d   1      38.435  -9.821  27.427  0.00  0.00     0.038 A 
ATOM     11  C   UNL d   1      38.600 -11.078  29.788  0.00  0.00     0.033 A 
ATOM     12  C   UNL d   1      38.513 -12.472  31.309  0.00  0.00     0.044 A 
ATOM     13  C   UNL d   1      37.696 -11.695  26.950  0.00  0.00     0.016 A 
ATOM     14  C   UNL d   1      38.129 -10.020  26.452  0.00  0.00     0.053 A 
ATOM     15  C   UNL d   1      37.587 -12.685  27.838  0.00  0.00     0.016 C 
ATOM     16  C   UNL d   1      37.757 -10.963  26.212  0.00  0.00     0.022 A 
ATOM     17  C   UNL d   1      38.066 -14.214  31.841  0.00  0.00     0.157 A 
ATOM     18  C   UNL d   1      38.661 -10.371  29.084  0.00  0.00    -0.022 A 
ATOM     19  C   UNL d   1      38.453 -13.229  32.084  0.00  0.00     0.148 A 
ATOM     20  C   UNL d   1      38.541 -11.803  30.525  0.00  0.00     0.016 C 
ATOM     21  C   UNL d   1      37.626 -12.224  27.379  0.00  0.00     0.021 C 
ATOM     22  C   UNL d   1      38.826  -8.847  27.701  0.00  0.00    -0.005 A 
ATOM     23  C   UNL d   1      38.192  -9.257  25.682  0.00  0.00     0.021 A 
ATOM     24  C   UNL d   1      38.898  -8.069  26.948  0.00  0.00    -0.014 A 
ATOM     25  C   UNL d   1      37.369 -15.062  30.152  0.00  0.00     0.020 C 
ATOM     26  C   UNL d   1      38.579  -8.275  25.932  0.00  0.00     0.006 A 
ATOM     27  C   UNL d   1      39.117  -8.667  28.641  0.00  0.00     0.011 C 
ATOM     28  C   UNL d   1      39.257  -7.167  27.190  0.00  0.00     0.010 C 
ENDROOT
BRANCH   9  29
ATOM     29  C   UNL d   1      37.503 -15.360  31.097  0.00  0.00     0.176 C 
BRANCH  29  30
ATOM     30  O   UNL d   1      37.400 -16.071  30.402  0.00  0.00    -0.400 OA
ATOM     31  H   UNL d   1      37.330 -15.914  29.807  0.00  0.00     0.209 HD
ENDBRANCH  29  30
ENDBRANCH   9  29
BRANCH  17  32
ATOM     32  O   UNL d   1      38.007 -14.918  32.548  0.00  0.00    -0.392 OA
ATOM     33  H   UNL d   1      38.494 -15.284  32.664  0.00  0.00     0.210 HD
ENDBRANCH  17  32
BRANCH  19  34
ATOM     34  O   UNL d   1      38.751 -13.021  33.015  0.00  0.00    -0.393 OA
ATOM     35  H   UNL d   1      38.513 -13.333  33.495  0.00  0.00     0.210 HD
ENDBRANCH  19  34
BRANCH  14  36
ATOM     36  C   UNL d   1      37.835 -10.210  25.515  0.00  0.00     0.149 C 
ATOM     37  O   UNL d   1      38.489 -10.570  24.850  0.00  0.00    -0.649 OA
BRANCH  36  38
ATOM     38  O   UNL d   1      36.888 -10.040  25.243  0.00  0.00    -0.776 OA
ATOM     39  H   UNL d   1      36.429 -10.123  25.652  0.00  0.00     0.167 HD
ENDBRANCH  36  38
ENDBRANCH  14  36
TORSDOF 6
ENDMDL
MODEL 5
REMARK VINA RESULT:    -6.249      1.402      2.595
REMARK INTER + INTRA:          -6.398
REMARK INTER:                  -7.709
REMARK INTRA:                   1.311
REMARK UNBOUND:                 1.312
REMARK  6 active torsions:
REMARK  status: ('A' for Active; 'I' for Inactive)
REMARK    1  A    between atoms: C_22  and  O_1 
REMARK    2  A    between atoms: C_24  and  O_2 
REMARK    3  A    between atoms: O_3  and  C_30 
REMARK    4  A    between atoms: O_4  and  C_33 
REMARK    5  A    between atoms: C_14  and  C_30 
REMARK    6  A    between atoms: C_19  and  C_33 
ROOT
ATOM      1  C   UNL d   1      38.199 -15.385  25.638  0.00  0.00    -0.028 A 
ATOM      2  C   UNL d   1      38.273 -15.849  24.755  0.00  0.00     0.007 A 
ATOM      3  C   UNL d   1      38.220 -16.888  24.691  0.00  0.00    -0.033 A 
ATOM      4  C   UNL d   1      38.252 -14.388  25.684  0.00  0.00    -0.013 A 
ATOM      5  C   UNL d   1      38.089 -17.450  25.558  0.00  0.00     0.007 A 
ATOM      6  C   UNL d   1      38.067 -15.927  26.517  0.00  0.00     0.011 A 
ATOM      7  C   UNL d   1      38.379 -13.854  24.848  0.00  0.00    -0.069 A 
ATOM      8  C   UNL d   1      38.012 -16.966  26.477  0.00  0.00     0.007 A 
ATOM      9  C   UNL d   1      38.030 -18.533  25.515  0.00  0.00     0.010 A 
ATOM     10  C   UNL d   1      38.435 -12.814  24.880  0.00  0.00     0.038 A 
ATOM     11  C   UNL d   1      38.400 -15.316  23.919  0.00  0.00     0.033 A 
ATOM     12  C   UNL d   1      38.303 -17.369  23.722  0.00  0.00     0.044 A 
ATOM     13  C   UNL d   1      38.173 -13.919  26.611  0.00  0.00     0.016 A 
ATOM     14  C   UNL d   1      38.359 -12.324  25.796  0.00  0.00     0.053 A 
ATOM     15  C   UNL d   1      38.095 -15.251  26.624  0.00  0.00     0.016 C 
ATOM     16  C   UNL d   1      38.227 -12.880  26.668  0.00  0.00     0.022 A 
ATOM     17  C   UNL d   1      38.111 -19.036  24.559  0.00  0.00     0.157 A 
ATOM     18  C   UNL d   1      38.453 -14.318  23.965  0.00  0.00    -0.022 A 
ATOM     19  C   UNL d   1      38.248 -18.451  23.655  0.00  0.00     0.148 A 
ATOM     20  C   UNL d   1      38.347 -16.347  23.859  0.00  0.00     0.016 C 
ATOM     21  C   UNL d   1      38.129 -14.600  26.654  0.00  0.00     0.021 C 
ATOM     22  C   UNL d   1      38.573 -12.257  23.960  0.00  0.00    -0.005 A 
ATOM     23  C   UNL d   1      38.415 -11.242  25.855  0.00  0.00     0.021 A 
ATOM     24  C   UNL d   1      38.632 -11.174  23.994  0.00  0.00    -0.014 A 
ATOM     25  C   UNL d   1      37.915 -18.568  26.508  0.00  0.00     0.020 C 
ATOM     26  C   UNL d   1      38.553 -10.663  24.948  0.00  0.00     0.006 A 
ATOM     27  C   UNL d   1      38.645 -12.738  23.086  0.00  0.00     0.011 C 
ATOM     28  C   UNL d   1      38.759 -10.651  23.151  0.00  0.00     0.010 C 
ENDROOT
BRANCH   9  29
ATOM     29  C   UNL d   1      37.927 -19.414  25.975  0.00  0.00     0.176 C 
BRANCH  29  30
ATOM     30  O   UNL d   1      38.123 -19.496  26.952  0.00  0.00    -0.400 OA
ATOM     31  H   UNL d   1      38.269 -20.047  27.194  0.00  0.00     0.209 HD
ENDBRANCH  29  30
ENDBRANCH   9  29
BRANCH  17  32
ATOM     32  O   UNL d   1      38.058 -20.033  24.508  0.00  0.00    -0.392 OA
ATOM     33  H   UNL d   1      38.483 -20.350  24.186  0.00  0.00     0.210 HD
ENDBRANCH  17  32
BRANCH  19  34
ATOM     34  O   UNL d   1      38.323 -18.904  22.768  0.00  0.00    -0.393 OA
ATOM     35  H   UNL d   1      38.779 -19.312  22.665  0.00  0.00     0.210 HD
ENDBRANCH  19  34
BRANCH  14  36
ATOM     36  C   UNL d   1      38.286 -11.853  26.675  0.00  0.00     0.149 C 
ATOM     37  O   UNL d   1      39.105 -11.699  27.228  0.00  0.00    -0.649 OA
BRANCH  36  38
ATOM     38  O   UNL d   1      37.396 -11.536  27.001  0.00  0.00    -0.776 OA
ATOM     39  H   UNL d   1      36.892 -11.886  26.915  0.00  0.00     0.167 HD
ENDBRANCH  36  38
ENDBRANCH  14  36
TORSDOF 6
ENDMDL
