MODEL 1
REMARK VINA RESULT:    -4.166      0.000      0.000
REMARK INTER + INTRA:           6.697
REMARK INTER:                  -8.356
REMARK INTRA:                  15.053
REMARK UNBOUND:                14.516
REMARK  18 active torsions:
REMARK  status: ('A' for Active; 'I' for Inactive)
REMARK    1  A    between atoms: C_17  and  O_1 
REMARK    2  A    between atoms: C_19  and  O_1 
REMARK    3  A    between atoms: C_16  and  O_4 
REMARK    4  A    between atoms: C_18  and  O_5 
REMARK    5  A    between atoms: C_20  and  O_6 
REMARK    6  A    between atoms: C_22  and  O_7 
REMARK    7  A    between atoms: O_7  and  C_27 
REMARK    8  A    between atoms: C_21  and  O_8 
REMARK    9  A    between atoms: O_9  and  C_25 
REMARK   10  A    between atoms: O_9  and  C_28 
REMARK   11  A    between atoms: O_10  and  C_26 
REMARK   12  A    between atoms: O_12  and  C_32 
REMARK   13  A    between atoms: O_13  and  C_34 
REMARK   14  A    between atoms: O_14  and  C_37 
REMARK   15  A    between atoms: O_15  and  C_39 
REMARK   16  A    between atoms: C_16  and  C_25 
REMARK   17  A    between atoms: C_24  and  C_26 
REMARK   18  A    between atoms: C_28  and  C_31 
ROOT
ATOM      1  O   UNL d   1      37.566 -11.539  30.996  0.00  0.00    -0.348 OA
ATOM      2  C   UNL d   1      38.234 -12.981  31.684  0.00  0.00     0.211 A 
ATOM      3  C   UNL d   1      38.115 -12.600  32.600  0.00  0.00     0.183 A 
ATOM      4  C   UNL d   1      37.722 -11.687  32.715  0.00  0.00     0.180 A 
ATOM      5  C   UNL d   1      37.960 -12.451  30.882  0.00  0.00     0.298 A 
ATOM      6  C   UNL d   1      37.447 -11.157  31.913  0.00  0.00     0.179 A 
ENDROOT
BRANCH   2   7
ATOM      7  O   UNL d   1      38.628 -13.894  31.570  0.00  0.00    -0.346 OA
BRANCH   7   8
ATOM      8  C   UNL d   1      38.050 -14.704  31.669  0.00  0.00     0.292 A 
ATOM      9  O   UNL d   1      37.054 -14.728  31.592  0.00  0.00    -0.355 OA
ATOM     10  C   UNL d   1      36.755 -15.671  31.739  0.00  0.00     0.213 A 
ATOM     11  C   UNL d   1      37.567 -16.230  31.907  0.00  0.00     0.131 A 
ATOM     12  C   UNL d   1      38.368 -15.632  31.864  0.00  0.00     0.211 A 
BRANCH  11  13
ATOM     13  O   UNL d   1      36.990 -17.040  32.007  0.00  0.00    -0.383 OA
ATOM     14  H   UNL d   1      36.528 -17.042  32.421  0.00  0.00     0.210 HD
ENDBRANCH  11  13
BRANCH  11  15
ATOM     15  C   UNL d   1      38.161 -17.011  32.098  0.00  0.00     0.221 C 
BRANCH  15  16
ATOM     16  O   UNL d   1      37.935 -17.641  32.841  0.00  0.00    -0.314 OA
BRANCH  16  17
ATOM     17  C   UNL d   1      38.491 -18.459  32.989  0.00  0.00     0.293 C 
ATOM     18  O   UNL d   1      38.991 -18.869  32.226  0.00  0.00    -0.259 OA
BRANCH  17  19
ATOM     19  C   UNL d   1      38.547 -18.867  33.900  0.00  0.00     0.042 A 
ATOM     20  C   UNL d   1      38.534 -18.282  34.712  0.00  0.00     0.057 A 
ATOM     21  C   UNL d   1      38.589 -18.690  35.623  0.00  0.00     0.102 A 
ATOM     22  C   UNL d   1      38.658 -19.683  35.723  0.00  0.00     0.099 A 
ATOM     23  C   UNL d   1      38.672 -20.267  34.912  0.00  0.00     0.040 A 
ATOM     24  C   UNL d   1      38.616 -19.859  34.001  0.00  0.00     0.020 A 
BRANCH  21  25
ATOM     25  O   UNL d   1      38.576 -18.105  36.435  0.00  0.00    -0.353 OA
ATOM     26  C   UNL d   1      37.963 -17.316  36.472  0.00  0.00     0.210 C 
ENDBRANCH  21  25
BRANCH  22  27
ATOM     27  O   UNL d   1      38.714 -20.091  36.634  0.00  0.00    -0.358 OA
ATOM     28  H   UNL d   1      38.338 -20.559  36.788  0.00  0.00     0.217 HD
ENDBRANCH  22  27
ENDBRANCH  17  19
ENDBRANCH  16  17
ENDBRANCH  15  16
ENDBRANCH  11  15
BRANCH  12  29
ATOM     29  O   UNL d   1      39.319 -15.913  31.993  0.00  0.00    -0.387 OA
ATOM     30  H   UNL d   1      39.531 -16.425  31.715  0.00  0.00     0.210 HD
ENDBRANCH  12  29
ENDBRANCH   7   8
ENDBRANCH   2   7
BRANCH   3  31
ATOM     31  O   UNL d   1      38.390 -13.130  33.403  0.00  0.00    -0.390 OA
ATOM     32  H   UNL d   1      38.752 -13.628  33.335  0.00  0.00     0.210 HD
ENDBRANCH   3  31
BRANCH   5  33
ATOM     33  O   UNL d   1      38.079 -12.833  29.965  0.00  0.00    -0.318 OA
BRANCH  33  34
ATOM     34  C   UNL d   1      38.071 -12.230  29.168  0.00  0.00     0.075 A 
ATOM     35  C   UNL d   1      38.803 -11.561  29.040  0.00  0.00     0.076 A 
ATOM     36  C   UNL d   1      38.795 -10.958  28.242  0.00  0.00     0.104 A 
ATOM     37  C   UNL d   1      38.055 -11.024  27.572  0.00  0.00     0.101 A 
ATOM     38  C   UNL d   1      37.324 -11.694  27.700  0.00  0.00     0.042 A 
ATOM     39  C   UNL d   1      37.331 -12.297  28.498  0.00  0.00     0.040 A 
BRANCH  36  40
ATOM     40  O   UNL d   1      39.527 -10.288  28.114  0.00  0.00    -0.353 OA
ATOM     41  C   UNL d   1      40.124 -10.048  28.879  0.00  0.00     0.210 C 
ENDBRANCH  36  40
BRANCH  37  42
ATOM     42  O   UNL d   1      38.048 -10.421  26.774  0.00  0.00    -0.353 OA
ATOM     43  C   UNL d   1      37.386 -10.572  26.040  0.00  0.00     0.210 C 
ENDBRANCH  37  42
ENDBRANCH  33  34
ENDBRANCH   5  33
BRANCH   4  44
ATOM     44  O   UNL d   1      37.603 -11.306  33.631  0.00  0.00    -0.390 OA
ATOM     45  H   UNL d   1      37.947 -11.516  34.102  0.00  0.00     0.210 HD
ENDBRANCH   4  44
BRANCH   6  46
ATOM     46  C   UNL d   1      37.054 -10.245  32.027  0.00  0.00     0.198 C 
BRANCH  46  47
ATOM     47  O   UNL d   1      36.963  -9.637  31.238  0.00  0.00    -0.398 OA
ATOM     48  H   UNL d   1      37.445  -9.292  31.056  0.00  0.00     0.209 HD
ENDBRANCH  46  47
ENDBRANCH   6  46
TORSDOF 18
ENDMDL
MODEL 2
REMARK VINA RESULT:    -4.119      4.018      6.665
REMARK INTER + INTRA:           6.785
REMARK INTER:                  -7.241
REMARK INTRA:                  14.026
REMARK UNBOUND:                14.516
REMARK  18 active torsions:
REMARK  status: ('A' for Active; 'I' for Inactive)
REMARK    1  A    between atoms: C_17  and  O_1 
REMARK    2  A    between atoms: C_19  and  O_1 
REMARK    3  A    between atoms: C_16  and  O_4 
REMARK    4  A    between atoms: C_18  and  O_5 
REMARK    5  A    between atoms: C_20  and  O_6 
REMARK    6  A    between atoms: C_22  and  O_7 
REMARK    7  A    between atoms: O_7  and  C_27 
REMARK    8  A    between atoms: C_21  and  O_8 
REMARK    9  A    between atoms: O_9  and  C_25 
REMARK   10  A    between atoms: O_9  and  C_28 
REMARK   11  A    between atoms: O_10  and  C_26 
REMARK   12  A    between atoms: O_12  and  C_32 
REMARK   13  A    between atoms: O_13  and  C_34 
REMARK   14  A    between atoms: O_14  and  C_37 
REMARK   15  A    between atoms: O_15  and  C_39 
REMARK   16  A    between atoms: C_16  and  C_25 
REMARK   17  A    between atoms: C_24  and  C_26 
REMARK   18  A    between atoms: C_28  and  C_31 
ROOT
ATOM      1  O   UNL d   1      37.926 -14.632  31.086  0.00  0.00    -0.348 OA
ATOM      2  C   UNL d   1      37.053 -14.756  29.595  0.00  0.00     0.211 A 
ATOM      3  C   UNL d   1      37.033 -13.758  29.524  0.00  0.00     0.183 A 
ATOM      4  C   UNL d   1      37.460 -13.198  30.234  0.00  0.00     0.180 A 
ATOM      5  C   UNL d   1      37.499 -15.192  30.376  0.00  0.00     0.298 A 
ATOM      6  C   UNL d   1      37.907 -13.635  31.015  0.00  0.00     0.179 A 
ENDROOT
BRANCH   2   7
ATOM      7  O   UNL d   1      36.626 -15.316  28.886  0.00  0.00    -0.346 OA
BRANCH   7   8
ATOM      8  C   UNL d   1      37.171 -15.651  28.117  0.00  0.00     0.292 A 
ATOM      9  O   UNL d   1      37.924 -15.165  27.675  0.00  0.00    -0.355 OA
ATOM     10  C   UNL d   1      38.278 -15.744  26.941  0.00  0.00     0.213 A 
ATOM     11  C   UNL d   1      37.743 -16.589  26.930  0.00  0.00     0.131 A 
ATOM     12  C   UNL d   1      37.060 -16.532  27.657  0.00  0.00     0.211 A 
BRANCH  11  13
ATOM     13  O   UNL d   1      38.289 -16.924  26.161  0.00  0.00    -0.383 OA
ATOM     14  H   UNL d   1      38.828 -16.651  26.022  0.00  0.00     0.210 HD
ENDBRANCH  11  13
BRANCH  11  15
ATOM     15  C   UNL d   1      37.404 -17.496  26.682  0.00  0.00     0.221 C 
BRANCH  15  16
ATOM     16  O   UNL d   1      38.038 -18.193  26.347  0.00  0.00    -0.314 OA
BRANCH  16  17
ATOM     17  C   UNL d   1      37.714 -19.125  26.180  0.00  0.00     0.293 C 
ATOM     18  O   UNL d   1      36.789 -19.278  25.835  0.00  0.00    -0.259 OA
BRANCH  17  19
ATOM     19  C   UNL d   1      38.317 -19.903  26.358  0.00  0.00     0.042 A 
ATOM     20  C   UNL d   1      38.352 -20.310  27.271  0.00  0.00     0.057 A 
ATOM     21  C   UNL d   1      38.954 -21.088  27.448  0.00  0.00     0.102 A 
ATOM     22  C   UNL d   1      39.522 -21.459  26.714  0.00  0.00     0.099 A 
ATOM     23  C   UNL d   1      39.487 -21.052  25.801  0.00  0.00     0.040 A 
ATOM     24  C   UNL d   1      38.885 -20.274  25.623  0.00  0.00     0.020 A 
BRANCH  21  25
ATOM     25  O   UNL d   1      38.989 -21.495  28.362  0.00  0.00    -0.353 OA
ATOM     26  C   UNL d   1      38.504 -21.061  29.121  0.00  0.00     0.210 C 
ENDBRANCH  21  25
BRANCH  22  27
ATOM     27  O   UNL d   1      40.124 -22.237  26.892  0.00  0.00    -0.358 OA
ATOM     28  H   UNL d   1      39.910 -22.815  26.829  0.00  0.00     0.217 HD
ENDBRANCH  22  27
ENDBRANCH  17  19
ENDBRANCH  16  17
ENDBRANCH  15  16
ENDBRANCH  11  15
BRANCH  12  29
ATOM     29  O   UNL d   1      36.383 -17.232  27.883  0.00  0.00    -0.387 OA
ATOM     30  H   UNL d   1      36.514 -17.831  27.791  0.00  0.00     0.210 HD
ENDBRANCH  12  29
ENDBRANCH   7   8
ENDBRANCH   2   7
BRANCH   3  31
ATOM     31  O   UNL d   1      36.587 -13.321  28.743  0.00  0.00    -0.390 OA
ATOM     32  H   UNL d   1      36.017 -13.084  28.804  0.00  0.00     0.210 HD
ENDBRANCH   3  31
BRANCH   5  33
ATOM     33  O   UNL d   1      37.519 -16.190  30.448  0.00  0.00    -0.318 OA
BRANCH  33  34
ATOM     34  C   UNL d   1      37.483 -16.627  31.346  0.00  0.00     0.075 A 
ATOM     35  C   UNL d   1      36.609 -16.723  31.821  0.00  0.00     0.076 A 
ATOM     36  C   UNL d   1      36.574 -17.161  32.720  0.00  0.00     0.104 A 
ATOM     37  C   UNL d   1      37.413 -17.503  33.143  0.00  0.00     0.101 A 
ATOM     38  C   UNL d   1      38.287 -17.407  32.667  0.00  0.00     0.042 A 
ATOM     39  C   UNL d   1      38.323 -16.969  31.769  0.00  0.00     0.040 A 
BRANCH  36  40
ATOM     40  O   UNL d   1      35.699 -17.257  33.195  0.00  0.00    -0.353 OA
ATOM     41  C   UNL d   1      34.873 -16.847  32.810  0.00  0.00     0.210 C 
ENDBRANCH  36  40
BRANCH  37  42
ATOM     42  O   UNL d   1      37.378 -17.941  34.041  0.00  0.00    -0.353 OA
ATOM     43  C   UNL d   1      38.195 -18.380  34.416  0.00  0.00     0.210 C 
ENDBRANCH  37  42
ENDBRANCH  33  34
ENDBRANCH   5  33
BRANCH   4  44
ATOM     44  O   UNL d   1      37.441 -12.201  30.162  0.00  0.00    -0.390 OA
ATOM     45  H   UNL d   1      36.905 -11.896  30.228  0.00  0.00     0.210 HD
ENDBRANCH   4  44
BRANCH   6  46
ATOM     46  C   UNL d   1      38.334 -13.074  31.724  0.00  0.00     0.198 C 
BRANCH  46  47
ATOM     47  O   UNL d   1      39.000 -13.481  32.349  0.00  0.00    -0.398 OA
ATOM     48  H   UNL d   1      38.821 -13.671  32.912  0.00  0.00     0.209 HD
ENDBRANCH  46  47
ENDBRANCH   6  46
TORSDOF 18
ENDMDL
MODEL 3
REMARK VINA RESULT:    -4.035      1.797      7.530
REMARK INTER + INTRA:           6.944
REMARK INTER:                  -7.318
REMARK INTRA:                  14.262
REMARK UNBOUND:                14.516
REMARK  18 active torsions:
REMARK  status: ('A' for Active; 'I' for Inactive)
REMARK    1  A    between atoms: C_17  and  O_1 
REMARK    2  A    between atoms: C_19  and  O_1 
REMARK    3  A    between atoms: C_16  and  O_4 
REMARK    4  A    between atoms: C_18  and  O_5 
REMARK    5  A    between atoms: C_20  and  O_6 
REMARK    6  A    between atoms: C_22  and  O_7 
REMARK    7  A    between atoms: O_7  and  C_27 
REMARK    8  A    between atoms: C_21  and  O_8 
REMARK    9  A    between atoms: O_9  and  C_25 
REMARK   10  A    between atoms: O_9  and  C_28 
REMARK   11  A    between atoms: O_10  and  C_26 
REMARK   12  A    between atoms: O_12  and  C_32 
REMARK   13  A    between atoms: O_13  and  C_34 
REMARK   14  A    between atoms: O_14  and  C_37 
REMARK   15  A    between atoms: O_15  and  C_39 
REMARK   16  A    between atoms: C_16  and  C_25 
REMARK   17  A    between atoms: C_24  and  C_26 
REMARK   18  A    between atoms: C_28  and  C_31 
ROOT
ATOM      1  O   UNL d   1      36.556 -14.994  33.295  0.00  0.00    -0.348 OA
ATOM      2  C   UNL d   1      37.507 -13.555  33.140  0.00  0.00     0.211 A 
ATOM      3  C   UNL d   1      37.173 -13.238  34.027  0.00  0.00     0.183 A 
ATOM      4  C   UNL d   1      36.530 -13.800  34.549  0.00  0.00     0.180 A 
ATOM      5  C   UNL d   1      37.199 -14.433  32.774  0.00  0.00     0.298 A 
ATOM      6  C   UNL d   1      36.221 -14.677  34.182  0.00  0.00     0.179 A 
ENDROOT
BRANCH   2   7
ATOM      7  O   UNL d   1      38.150 -12.994  32.619  0.00  0.00    -0.346 OA
BRANCH   7   8
ATOM      8  C   UNL d   1      37.813 -12.374  31.910  0.00  0.00     0.292 A 
ATOM      9  O   UNL d   1      36.914 -11.937  31.891  0.00  0.00    -0.355 OA
ATOM     10  C   UNL d   1      36.860 -11.376  31.066  0.00  0.00     0.213 A 
ATOM     11  C   UNL d   1      37.727 -11.465  30.574  0.00  0.00     0.131 A 
ATOM     12  C   UNL d   1      38.315 -12.082  31.096  0.00  0.00     0.211 A 
BRANCH  11  13
ATOM     13  O   UNL d   1      37.389 -10.846  29.866  0.00  0.00    -0.383 OA
ATOM     14  H   UNL d   1      37.666 -10.828  29.311  0.00  0.00     0.210 HD
ENDBRANCH  11  13
BRANCH  11  15
ATOM     15  C   UNL d   1      38.446 -11.359  29.888  0.00  0.00     0.221 C 
BRANCH  15  16
ATOM     16  O   UNL d   1      38.205 -11.201  28.931  0.00  0.00    -0.314 OA
BRANCH  16  17
ATOM     17  C   UNL d   1      38.924 -11.092  28.245  0.00  0.00     0.293 C 
ATOM     18  O   UNL d   1      39.828 -10.760  28.517  0.00  0.00    -0.259 OA
BRANCH  17  19
ATOM     19  C   UNL d   1      38.740 -11.315  27.288  0.00  0.00     0.042 A 
ATOM     20  C   UNL d   1      38.899 -12.243  26.951  0.00  0.00     0.057 A 
ATOM     21  C   UNL d   1      38.715 -12.466  25.994  0.00  0.00     0.102 A 
ATOM     22  C   UNL d   1      38.373 -11.760  25.373  0.00  0.00     0.099 A 
ATOM     23  C   UNL d   1      38.215 -10.832  25.710  0.00  0.00     0.040 A 
ATOM     24  C   UNL d   1      38.398 -10.609  26.667  0.00  0.00     0.020 A 
BRANCH  21  25
ATOM     25  O   UNL d   1      38.873 -13.395  25.657  0.00  0.00    -0.353 OA
ATOM     26  C   UNL d   1      38.770 -14.175  26.274  0.00  0.00     0.210 C 
ENDBRANCH  21  25
BRANCH  22  27
ATOM     27  O   UNL d   1      38.189 -11.983  24.416  0.00  0.00    -0.358 OA
ATOM     28  H   UNL d   1      37.710 -11.720  24.123  0.00  0.00     0.217 HD
ENDBRANCH  22  27
ENDBRANCH  17  19
ENDBRANCH  16  17
ENDBRANCH  15  16
ENDBRANCH  11  15
BRANCH  12  29
ATOM     29  O   UNL d   1      39.244 -12.359  30.848  0.00  0.00    -0.387 OA
ATOM     30  H   UNL d   1      39.451 -12.922  31.004  0.00  0.00     0.210 HD
ENDBRANCH  12  29
ENDBRANCH   7   8
ENDBRANCH   2   7
BRANCH   3  31
ATOM     31  O   UNL d   1      37.481 -12.360  34.394  0.00  0.00    -0.390 OA
ATOM     32  H   UNL d   1      38.078 -12.279  34.542  0.00  0.00     0.210 HD
ENDBRANCH   3  31
BRANCH   5  33
ATOM     33  O   UNL d   1      37.534 -14.750  31.886  0.00  0.00    -0.318 OA
BRANCH  33  34
ATOM     34  C   UNL d   1      37.381 -15.697  31.604  0.00  0.00     0.075 A 
ATOM     35  C   UNL d   1      37.907 -16.436  32.026  0.00  0.00     0.076 A 
ATOM     36  C   UNL d   1      37.755 -17.383  31.744  0.00  0.00     0.104 A 
ATOM     37  C   UNL d   1      37.077 -17.591  31.038  0.00  0.00     0.101 A 
ATOM     38  C   UNL d   1      36.552 -16.853  30.616  0.00  0.00     0.042 A 
ATOM     39  C   UNL d   1      36.704 -15.906  30.898  0.00  0.00     0.040 A 
BRANCH  36  40
ATOM     40  O   UNL d   1      38.280 -18.121  32.167  0.00  0.00    -0.353 OA
ATOM     41  C   UNL d   1      38.519 -18.073  33.136  0.00  0.00     0.210 C 
ENDBRANCH  36  40
BRANCH  37  42
ATOM     42  O   UNL d   1      36.925 -18.538  30.756  0.00  0.00    -0.353 OA
ATOM     43  C   UNL d   1      36.370 -18.736  29.948  0.00  0.00     0.210 C 
ENDBRANCH  37  42
ENDBRANCH  33  34
ENDBRANCH   5  33
BRANCH   4  44
ATOM     44  O   UNL d   1      36.195 -13.483  35.436  0.00  0.00    -0.390 OA
ATOM     45  H   UNL d   1      35.970 -13.890  35.846  0.00  0.00     0.210 HD
ENDBRANCH   4  44
BRANCH   6  46
ATOM     46  C   UNL d   1      35.578 -15.239  34.704  0.00  0.00     0.198 C 
BRANCH  46  47
ATOM     47  O   UNL d   1      35.758 -16.213  34.835  0.00  0.00    -0.398 OA
ATOM     48  H   UNL d   1      36.285 -16.463  34.625  0.00  0.00     0.209 HD
ENDBRANCH  46  47
ENDBRANCH   6  46
TORSDOF 18
ENDMDL
MODEL 4
REMARK VINA RESULT:    -3.998      2.729      4.057
REMARK INTER + INTRA:           7.012
REMARK INTER:                  -7.029
REMARK INTRA:                  14.041
REMARK UNBOUND:                14.516
REMARK  18 active torsions:
REMARK  status: ('A' for Active; 'I' for Inactive)
REMARK    1  A    between atoms: C_17  and  O_1 
REMARK    2  A    between atoms: C_19  and  O_1 
REMARK    3  A    between atoms: C_16  and  O_4 
REMARK    4  A    between atoms: C_18  and  O_5 
REMARK    5  A    between atoms: C_20  and  O_6 
REMARK    6  A    between atoms: C_22  and  O_7 
REMARK    7  A    between atoms: O_7  and  C_27 
REMARK    8  A    between atoms: C_21  and  O_8 
REMARK    9  A    between atoms: O_9  and  C_25 
REMARK   10  A    between atoms: O_9  and  C_28 
REMARK   11  A    between atoms: O_10  and  C_26 
REMARK   12  A    between atoms: O_12  and  C_32 
REMARK   13  A    between atoms: O_13  and  C_34 
REMARK   14  A    between atoms: O_14  and  C_37 
REMARK   15  A    between atoms: O_15  and  C_39 
REMARK   16  A    between atoms: C_16  and  C_25 
REMARK   17  A    between atoms: C_24  and  C_26 
REMARK   18  A    between atoms: C_28  and  C_31 
ROOT
ATOM      1  O   UNL d   1      39.006 -11.444  29.891  0.00  0.00    -0.348 OA
ATOM      2  C   UNL d   1      38.200 -12.333  31.140  0.00  0.00     0.211 A 
ATOM      3  C   UNL d   1      38.672 -11.788  31.833  0.00  0.00     0.183 A 
ATOM      4  C   UNL d   1      39.312 -11.071  31.555  0.00  0.00     0.180 A 
ATOM      5  C   UNL d   1      38.366 -12.160  30.169  0.00  0.00     0.298 A 
ATOM      6  C   UNL d   1      39.478 -10.899  30.584  0.00  0.00     0.179 A 
ENDROOT
BRANCH   2   7
ATOM      7  O   UNL d   1      37.560 -13.049  31.418  0.00  0.00    -0.346 OA
BRANCH   7   8
ATOM      8  C   UNL d   1      37.873 -13.996  31.495  0.00  0.00     0.292 A 
ATOM      9  O   UNL d   1      38.779 -14.293  31.794  0.00  0.00    -0.355 OA
ATOM     10  C   UNL d   1      38.801 -15.293  31.770  0.00  0.00     0.213 A 
ATOM     11  C   UNL d   1      37.907 -15.614  31.457  0.00  0.00     0.131 A 
ATOM     12  C   UNL d   1      37.333 -14.812  31.287  0.00  0.00     0.211 A 
BRANCH  11  13
ATOM     13  O   UNL d   1      38.220 -16.560  31.534  0.00  0.00    -0.383 OA
ATOM     14  H   UNL d   1      38.475 -16.760  32.063  0.00  0.00     0.210 HD
ENDBRANCH  11  13
BRANCH  11  15
ATOM     15  C   UNL d   1      37.154 -16.211  31.183  0.00  0.00     0.221 C 
BRANCH  15  16
ATOM     16  O   UNL d   1      37.345 -17.074  30.716  0.00  0.00    -0.314 OA
BRANCH  16  17
ATOM     17  C   UNL d   1      36.592 -17.628  30.360  0.00  0.00     0.293 C 
ATOM     18  O   UNL d   1      35.709 -17.631  30.830  0.00  0.00    -0.259 OA
BRANCH  17  19
ATOM     19  C   UNL d   1      36.722 -18.178  29.535  0.00  0.00     0.042 A 
ATOM     20  C   UNL d   1      36.613 -17.760  28.634  0.00  0.00     0.057 A 
ATOM     21  C   UNL d   1      36.743 -18.309  27.809  0.00  0.00     0.102 A 
ATOM     22  C   UNL d   1      36.981 -19.277  27.885  0.00  0.00     0.099 A 
ATOM     23  C   UNL d   1      37.090 -19.695  28.787  0.00  0.00     0.040 A 
ATOM     24  C   UNL d   1      36.960 -19.146  29.612  0.00  0.00     0.020 A 
BRANCH  21  25
ATOM     25  O   UNL d   1      36.634 -17.891  26.906  0.00  0.00    -0.353 OA
ATOM     26  C   UNL d   1      36.327 -16.942  26.829  0.00  0.00     0.210 C 
ENDBRANCH  21  25
BRANCH  22  27
ATOM     27  O   UNL d   1      37.111 -19.827  27.060  0.00  0.00    -0.358 OA
ATOM     28  H   UNL d   1      37.064 -19.563  26.501  0.00  0.00     0.217 HD
ENDBRANCH  22  27
ENDBRANCH  17  19
ENDBRANCH  16  17
ENDBRANCH  15  16
ENDBRANCH  11  15
BRANCH  12  29
ATOM     29  O   UNL d   1      36.387 -14.825  30.965  0.00  0.00    -0.387 OA
ATOM     30  H   UNL d   1      35.952 -15.123  31.293  0.00  0.00     0.210 HD
ENDBRANCH  12  29
ENDBRANCH   7   8
ENDBRANCH   2   7
BRANCH   3  31
ATOM     31  O   UNL d   1      38.505 -11.960  32.804  0.00  0.00    -0.390 OA
ATOM     32  H   UNL d   1      38.635 -12.516  33.047  0.00  0.00     0.210 HD
ENDBRANCH   3  31
BRANCH   5  33
ATOM     33  O   UNL d   1      37.894 -12.705  29.477  0.00  0.00    -0.318 OA
BRANCH  33  34
ATOM     34  C   UNL d   1      37.662 -12.298  28.593  0.00  0.00     0.075 A 
ATOM     35  C   UNL d   1      38.243 -12.465  27.797  0.00  0.00     0.076 A 
ATOM     36  C   UNL d   1      38.011 -12.058  26.914  0.00  0.00     0.104 A 
ATOM     37  C   UNL d   1      37.197 -11.484  26.826  0.00  0.00     0.101 A 
ATOM     38  C   UNL d   1      36.616 -11.316  27.622  0.00  0.00     0.042 A 
ATOM     39  C   UNL d   1      36.848 -11.723  28.506  0.00  0.00     0.040 A 
BRANCH  36  40
ATOM     40  O   UNL d   1      38.593 -12.225  26.118  0.00  0.00    -0.353 OA
ATOM     41  C   UNL d   1      39.063 -13.102  26.017  0.00  0.00     0.210 C 
ENDBRANCH  36  40
BRANCH  37  42
ATOM     42  O   UNL d   1      36.965 -11.076  25.943  0.00  0.00    -0.353 OA
ATOM     43  C   UNL d   1      36.127 -10.540  25.845  0.00  0.00     0.210 C 
ENDBRANCH  37  42
ENDBRANCH  33  34
ENDBRANCH   5  33
BRANCH   4  44
ATOM     44  O   UNL d   1      39.784 -10.527  32.248  0.00  0.00    -0.390 OA
ATOM     45  H   UNL d   1      39.483 -10.347  32.759  0.00  0.00     0.210 HD
ENDBRANCH   4  44
BRANCH   6  46
ATOM     46  C   UNL d   1      40.118 -10.182  30.306  0.00  0.00     0.198 C 
BRANCH  46  47
ATOM     47  O   UNL d   1      40.085  -9.817  29.376  0.00  0.00    -0.398 OA
ATOM     48  H   UNL d   1      39.742 -10.099  28.944  0.00  0.00     0.209 HD
ENDBRANCH  46  47
ENDBRANCH   6  46
TORSDOF 18
ENDMDL
MODEL 5
REMARK VINA RESULT:    -3.970      2.982      8.191
REMARK INTER + INTRA:           7.064
REMARK INTER:                  -6.904
REMARK INTRA:                  13.968
REMARK UNBOUND:                14.516
REMARK  18 active torsions:
REMARK  status: ('A' for Active; 'I' for Inactive)
REMARK    1  A    between atoms: C_17  and  O_1 
REMARK    2  A    between atoms: C_19  and  O_1 
REMARK    3  A    between atoms: C_16  and  O_4 
REMARK    4  A    between atoms: C_18  and  O_5 
REMARK    5  A    between atoms: C_20  and  O_6 
REMARK    6  A    between atoms: C_22  and  O_7 
REMARK    7  A    between atoms: O_7  and  C_27 
REMARK    8  A    between atoms: C_21  and  O_8 
REMARK    9  A    between atoms: O_9  and  C_25 
REMARK   10  A    between atoms: O_9  and  C_28 
REMARK   11  A    between atoms: O_10  and  C_26 
REMARK   12  A    between atoms: O_12  and  C_32 
REMARK   13  A    between atoms: O_13  and  C_34 
REMARK   14  A    between atoms: O_14  and  C_37 
REMARK   15  A    between atoms: O_15  and  C_39 
REMARK   16  A    between atoms: C_16  and  C_25 
REMARK   17  A    between atoms: C_24  and  C_26 
REMARK   18  A    between atoms: C_28  and  C_31 
ROOT
ATOM      1  O   UNL d   1      38.679 -18.785  33.844  0.00  0.00    -0.348 OA
ATOM      2  C   UNL d   1      37.532 -17.559  33.414  0.00  0.00     0.211 A 
ATOM      3  C   UNL d   1      37.553 -17.211  34.352  0.00  0.00     0.183 A 
ATOM      4  C   UNL d   1      38.137 -17.649  35.035  0.00  0.00     0.180 A 
ATOM      5  C   UNL d   1      38.095 -18.346  33.161  0.00  0.00     0.298 A 
ATOM      6  C   UNL d   1      38.700 -18.436  34.781  0.00  0.00     0.179 A 
ENDROOT
BRANCH   2   7
ATOM      7  O   UNL d   1      36.948 -17.121  32.731  0.00  0.00    -0.346 OA
BRANCH   7   8
ATOM      8  C   UNL d   1      37.323 -16.413  32.133  0.00  0.00     0.292 A 
ATOM      9  O   UNL d   1      38.071 -15.789  32.358  0.00  0.00    -0.355 OA
ATOM     10  C   UNL d   1      38.226 -15.195  31.569  0.00  0.00     0.213 A 
ATOM     11  C   UNL d   1      37.574 -15.451  30.856  0.00  0.00     0.131 A 
ATOM     12  C   UNL d   1      37.015 -16.203  31.205  0.00  0.00     0.211 A 
BRANCH  11  13
ATOM     13  O   UNL d   1      37.949 -14.742  30.258  0.00  0.00    -0.383 OA
ATOM     14  H   UNL d   1      38.553 -14.741  30.121  0.00  0.00     0.210 HD
ENDBRANCH  11  13
BRANCH  11  15
ATOM     15  C   UNL d   1      37.069 -15.475  29.994  0.00  0.00     0.221 C 
BRANCH  15  16
ATOM     16  O   UNL d   1      37.550 -15.333  29.129  0.00  0.00    -0.314 OA
BRANCH  16  17
ATOM     17  C   UNL d   1      37.042 -15.339  28.267  0.00  0.00     0.293 C 
ATOM     18  O   UNL d   1      36.100 -15.003  28.240  0.00  0.00    -0.259 OA
BRANCH  17  19
ATOM     19  C   UNL d   1      37.475 -15.680  27.434  0.00  0.00     0.042 A 
ATOM     20  C   UNL d   1      37.489 -16.661  27.243  0.00  0.00     0.057 A 
ATOM     21  C   UNL d   1      37.923 -17.003  26.409  0.00  0.00     0.102 A 
ATOM     22  C   UNL d   1      38.342 -16.362  25.766  0.00  0.00     0.099 A 
ATOM     23  C   UNL d   1      38.328 -15.381  25.956  0.00  0.00     0.040 A 
ATOM     24  C   UNL d   1      37.895 -15.040  26.790  0.00  0.00     0.020 A 
BRANCH  21  25
ATOM     25  O   UNL d   1      37.936 -17.985  26.218  0.00  0.00    -0.353 OA
ATOM     26  C   UNL d   1      37.554 -18.628  26.881  0.00  0.00     0.210 C 
ENDBRANCH  21  25
BRANCH  22  27
ATOM     27  O   UNL d   1      38.776 -16.704  24.932  0.00  0.00    -0.358 OA
ATOM     28  H   UNL d   1      39.335 -16.971  24.960  0.00  0.00     0.217 HD
ENDBRANCH  22  27
ENDBRANCH  17  19
ENDBRANCH  16  17
ENDBRANCH  15  16
ENDBRANCH  11  15
BRANCH  12  29
ATOM     29  O   UNL d   1      36.278 -16.666  30.711  0.00  0.00    -0.387 OA
ATOM     30  H   UNL d   1      36.014 -16.392  30.222  0.00  0.00     0.210 HD
ENDBRANCH  12  29
ENDBRANCH   7   8
ENDBRANCH   2   7
BRANCH   3  31
ATOM     31  O   UNL d   1      36.991 -16.424  34.605  0.00  0.00    -0.390 OA
ATOM     32  H   UNL d   1      37.109 -16.114  35.129  0.00  0.00     0.210 HD
ENDBRANCH   3  31
BRANCH   5  33
ATOM     33  O   UNL d   1      38.073 -18.695  32.224  0.00  0.00    -0.318 OA
BRANCH  33  34
ATOM     34  C   UNL d   1      38.118 -19.679  32.055  0.00  0.00     0.075 A 
ATOM     35  C   UNL d   1      37.306 -20.247  32.191  0.00  0.00     0.076 A 
ATOM     36  C   UNL d   1      37.351 -21.232  32.022  0.00  0.00     0.104 A 
ATOM     37  C   UNL d   1      38.208 -21.649  31.718  0.00  0.00     0.101 A 
ATOM     38  C   UNL d   1      39.020 -21.081  31.582  0.00  0.00     0.042 A 
ATOM     39  C   UNL d   1      38.975 -20.096  31.751  0.00  0.00     0.040 A 
BRANCH  36  40
ATOM     40  O   UNL d   1      36.539 -21.800  32.158  0.00  0.00    -0.353 OA
ATOM     41  C   UNL d   1      35.693 -21.390  32.499  0.00  0.00     0.210 C 
ENDBRANCH  36  40
BRANCH  37  42
ATOM     42  O   UNL d   1      38.253 -22.633  31.550  0.00  0.00    -0.353 OA
ATOM     43  C   UNL d   1      39.111 -23.051  31.254  0.00  0.00     0.210 C 
ENDBRANCH  37  42
ENDBRANCH  33  34
ENDBRANCH   5  33
BRANCH   4  44
ATOM     44  O   UNL d   1      38.159 -17.301  35.972  0.00  0.00    -0.390 OA
ATOM     45  H   UNL d   1      38.546 -16.841  36.123  0.00  0.00     0.210 HD
ENDBRANCH   4  44
BRANCH   6  46
ATOM     46  C   UNL d   1      39.284 -18.874  35.464  0.00  0.00     0.198 C 
BRANCH  46  47
ATOM     47  O   UNL d   1      39.282 -19.870  35.559  0.00  0.00    -0.398 OA
ATOM     48  H   UNL d   1      39.099 -20.226  35.086  0.00  0.00     0.209 HD
ENDBRANCH  46  47
ENDBRANCH   6  46
TORSDOF 18
ENDMDL
