MODEL 1
REMARK VINA RESULT:     0.000      0.000      0.000
REMARK INTER + INTRA:           3.468
REMARK INTER:                   0.000
REMARK INTRA:                   3.468
REMARK UNBOUND:                 3.468
REMARK  6 active torsions:
REMARK  status: ('A' for Active; 'I' for Inactive)
REMARK    1  A    between atoms: O_2  and  C_7 
REMARK    2  A    between atoms: O_3  and  C_13 
REMARK    3  A    between atoms: O_4  and  C_18 
REMARK    4  A    between atoms: O_5  and  C_19 
REMARK    5  A    between atoms: O_6  and  C_21 
REMARK    6  A    between atoms: C_8  and  C_12 
ROOT
ATOM      1  O   UNL d   1     -17.094  13.902  26.871  0.00  0.00    -0.338 OA
ATOM      2  C   UNL d   1     -16.316  14.969  27.992  0.00  0.00     0.156 A 
ATOM      3  C   UNL d   1     -16.534  14.041  27.688  0.00  0.00     0.191 A 
ATOM      4  C   UNL d   1     -16.658  15.756  27.480  0.00  0.00     0.079 A 
ATOM      5  C   UNL d   1     -17.218  15.617  26.663  0.00  0.00     0.011 A 
ATOM      6  C   UNL d   1     -17.436  14.690  26.358  0.00  0.00     0.081 A 
ATOM      7  C   UNL d   1     -17.567  16.447  26.139  0.00  0.00     0.077 A 
ATOM      8  C   UNL d   1     -18.018  14.528  25.510  0.00  0.00     0.074 A 
ATOM      9  C   UNL d   1     -18.151  16.309  25.288  0.00  0.00     0.073 A 
ATOM     10  C   UNL d   1     -18.378  15.344  24.971  0.00  0.00     0.071 A 
ENDROOT
BRANCH   3  11
ATOM     11  C   UNL d   1     -16.192  13.254  28.200  0.00  0.00    -0.024 A 
ATOM     12  C   UNL d   1     -16.727  12.878  28.956  0.00  0.00     0.049 A 
ATOM     13  C   UNL d   1     -16.385  12.091  29.469  0.00  0.00     0.099 A 
ATOM     14  C   UNL d   1     -15.508  11.678  29.225  0.00  0.00     0.098 A 
ATOM     15  C   UNL d   1     -14.972  12.054  28.468  0.00  0.00     0.040 A 
ATOM     16  C   UNL d   1     -15.314  12.841  27.956  0.00  0.00     0.013 A 
BRANCH  13  17
ATOM     17  O   UNL d   1     -16.921  11.715  30.225  0.00  0.00    -0.358 OA
ATOM     18  H   UNL d   1     -16.635  11.444  30.703  0.00  0.00     0.217 HD
ENDBRANCH  13  17
BRANCH  14  19
ATOM     19  O   UNL d   1     -15.166  10.891  29.737  0.00  0.00    -0.358 OA
ATOM     20  H   UNL d   1     -15.345  10.318  29.581  0.00  0.00     0.217 HD
ENDBRANCH  14  19
ENDBRANCH   3  11
BRANCH   2  21
ATOM     21  O   UNL d   1     -15.756  15.108  28.809  0.00  0.00    -0.392 OA
ATOM     22  H   UNL d   1     -15.989  14.982  29.369  0.00  0.00     0.210 HD
ENDBRANCH   2  21
BRANCH   7  23
ATOM     23  O   UNL d   1     -17.343  17.369  26.453  0.00  0.00    -0.360 OA
ATOM     24  H   UNL d   1     -16.790  17.615  26.321  0.00  0.00     0.217 HD
ENDBRANCH   7  23
BRANCH  10  25
ATOM     25  O   UNL d   1     -18.937  15.200  24.155  0.00  0.00    -0.361 OA
ATOM     26  H   UNL d   1     -19.253  14.672  24.083  0.00  0.00     0.217 HD
ENDBRANCH  10  25
TORSDOF 6
ENDMDL
MODEL 2
REMARK VINA RESULT:     0.000     54.074     55.875
REMARK INTER + INTRA:           3.468
REMARK INTER:                   0.000
REMARK INTRA:                   3.468
REMARK UNBOUND:                 3.468
REMARK  6 active torsions:
REMARK  status: ('A' for Active; 'I' for Inactive)
REMARK    1  A    between atoms: O_2  and  C_7 
REMARK    2  A    between atoms: O_3  and  C_13 
REMARK    3  A    between atoms: O_4  and  C_18 
REMARK    4  A    between atoms: O_5  and  C_19 
REMARK    5  A    between atoms: O_6  and  C_21 
REMARK    6  A    between atoms: C_8  and  C_12 
ROOT
ATOM      1  O   UNL d   1     -12.874 -11.022 -22.768  0.00  0.00    -0.338 OA
ATOM      2  C   UNL d   1     -14.072 -10.383 -21.692  0.00  0.00     0.156 A 
ATOM      3  C   UNL d   1     -13.174 -10.316 -22.126  0.00  0.00     0.191 A 
ATOM      4  C   UNL d   1     -14.670 -11.157 -21.899  0.00  0.00     0.079 A 
ATOM      5  C   UNL d   1     -14.371 -11.863 -22.541  0.00  0.00     0.011 A 
ATOM      6  C   UNL d   1     -13.473 -11.795 -22.975  0.00  0.00     0.081 A 
ATOM      7  C   UNL d   1     -15.005 -12.663 -22.747  0.00  0.00     0.077 A 
ATOM      8  C   UNL d   1     -13.147 -12.523 -23.646  0.00  0.00     0.074 A 
ATOM      9  C   UNL d   1     -14.700 -13.402 -23.414  0.00  0.00     0.073 A 
ATOM     10  C   UNL d   1     -13.765 -13.332 -23.866  0.00  0.00     0.071 A 
ENDROOT
BRANCH   3  11
ATOM     11  C   UNL d   1     -12.575  -9.542 -21.919  0.00  0.00    -0.024 A 
ATOM     12  C   UNL d   1     -12.638  -8.702 -22.458  0.00  0.00     0.049 A 
ATOM     13  C   UNL d   1     -12.039  -7.929 -22.251  0.00  0.00     0.099 A 
ATOM     14  C   UNL d   1     -11.378  -7.994 -21.504  0.00  0.00     0.098 A 
ATOM     15  C   UNL d   1     -11.315  -8.834 -20.965  0.00  0.00     0.040 A 
ATOM     16  C   UNL d   1     -11.913  -9.608 -21.172  0.00  0.00     0.013 A 
BRANCH  13  17
ATOM     17  O   UNL d   1     -12.103  -7.089 -22.791  0.00  0.00    -0.358 OA
ATOM     18  H   UNL d   1     -11.641  -6.676 -22.776  0.00  0.00     0.217 HD
ENDBRANCH  13  17
BRANCH  14  19
ATOM     19  O   UNL d   1     -10.779  -7.221 -21.297  0.00  0.00    -0.358 OA
ATOM     20  H   UNL d   1     -10.708  -7.032 -20.711  0.00  0.00     0.217 HD
ENDBRANCH  14  19
ENDBRANCH   3  11
BRANCH   2  21
ATOM     21  O   UNL d   1     -14.371  -9.677 -21.050  0.00  0.00    -0.392 OA
ATOM     22  H   UNL d   1     -14.255  -9.740 -20.444  0.00  0.00     0.210 HD
ENDBRANCH   2  21
BRANCH   7  23
ATOM     23  O   UNL d   1     -15.901 -12.720 -22.306  0.00  0.00    -0.360 OA
ATOM     24  H   UNL d   1     -16.055 -12.315 -21.864  0.00  0.00     0.217 HD
ENDBRANCH   7  23
BRANCH  10  25
ATOM     25  O   UNL d   1     -13.462 -14.036 -24.508  0.00  0.00    -0.361 OA
ATOM     26  H   UNL d   1     -12.858 -14.112 -24.624  0.00  0.00     0.217 HD
ENDBRANCH  10  25
TORSDOF 6
ENDMDL
MODEL 3
REMARK VINA RESULT:     0.000     23.136     25.259
REMARK INTER + INTRA:           3.468
REMARK INTER:                   0.000
REMARK INTRA:                   3.468
REMARK UNBOUND:                 3.468
REMARK  6 active torsions:
REMARK  status: ('A' for Active; 'I' for Inactive)
REMARK    1  A    between atoms: O_2  and  C_7 
REMARK    2  A    between atoms: O_3  and  C_13 
REMARK    3  A    between atoms: O_4  and  C_18 
REMARK    4  A    between atoms: O_5  and  C_19 
REMARK    5  A    between atoms: O_6  and  C_21 
REMARK    6  A    between atoms: C_8  and  C_12 
ROOT
ATOM      1  O   UNL d   1      -5.469  27.024   9.360  0.00  0.00    -0.338 OA
ATOM      2  C   UNL d   1      -6.467  28.197   8.567  0.00  0.00     0.156 A 
ATOM      3  C   UNL d   1      -6.232  27.670   9.384  0.00  0.00     0.191 A 
ATOM      4  C   UNL d   1      -5.940  28.077   7.726  0.00  0.00     0.079 A 
ATOM      5  C   UNL d   1      -5.177  27.430   7.702  0.00  0.00     0.011 A 
ATOM      6  C   UNL d   1      -4.942  26.904   8.519  0.00  0.00     0.081 A 
ATOM      7  C   UNL d   1      -4.637  27.316   6.819  0.00  0.00     0.077 A 
ATOM      8  C   UNL d   1      -4.151  26.226   8.509  0.00  0.00     0.074 A 
ATOM      9  C   UNL d   1      -3.842  26.644   6.786  0.00  0.00     0.073 A 
ATOM     10  C   UNL d   1      -3.597  26.096   7.637  0.00  0.00     0.071 A 
ENDROOT
BRANCH   3  11
ATOM     11  C   UNL d   1      -6.759  27.791  10.225  0.00  0.00    -0.024 A 
ATOM     12  C   UNL d   1      -7.574  27.234  10.388  0.00  0.00     0.049 A 
ATOM     13  C   UNL d   1      -8.101  27.354  11.230  0.00  0.00     0.099 A 
ATOM     14  C   UNL d   1      -7.814  28.031  11.908  0.00  0.00     0.098 A 
ATOM     15  C   UNL d   1      -6.999  28.587  11.745  0.00  0.00     0.040 A 
ATOM     16  C   UNL d   1      -6.471  28.467  10.903  0.00  0.00     0.013 A 
BRANCH  13  17
ATOM     17  O   UNL d   1      -8.916  26.798  11.393  0.00  0.00    -0.358 OA
ATOM     18  H   UNL d   1      -9.025  26.298  11.043  0.00  0.00     0.217 HD
ENDBRANCH  13  17
BRANCH  14  19
ATOM     19  O   UNL d   1      -8.341  28.151  12.749  0.00  0.00    -0.358 OA
ATOM     20  H   UNL d   1      -8.427  27.671  13.132  0.00  0.00     0.217 HD
ENDBRANCH  14  19
ENDBRANCH   3  11
BRANCH   2  21
ATOM     21  O   UNL d   1      -7.229  28.844   8.591  0.00  0.00    -0.392 OA
ATOM     22  H   UNL d   1      -7.394  29.149   8.077  0.00  0.00     0.210 HD
ENDBRANCH   2  21
BRANCH   7  23
ATOM     23  O   UNL d   1      -4.881  27.848   6.008  0.00  0.00    -0.360 OA
ATOM     24  H   UNL d   1      -4.558  28.356   5.862  0.00  0.00     0.217 HD
ENDBRANCH   7  23
BRANCH  10  25
ATOM     25  O   UNL d   1      -2.835  25.448   7.616  0.00  0.00    -0.361 OA
ATOM     26  H   UNL d   1      -2.848  24.966   7.227  0.00  0.00     0.217 HD
ENDBRANCH  10  25
TORSDOF 6
ENDMDL
MODEL 4
REMARK VINA RESULT:     0.000     19.290     20.476
REMARK INTER + INTRA:           3.468
REMARK INTER:                   0.000
REMARK INTRA:                   3.468
REMARK UNBOUND:                 3.468
REMARK  6 active torsions:
REMARK  status: ('A' for Active; 'I' for Inactive)
REMARK    1  A    between atoms: O_2  and  C_7 
REMARK    2  A    between atoms: O_3  and  C_13 
REMARK    3  A    between atoms: O_4  and  C_18 
REMARK    4  A    between atoms: O_5  and  C_19 
REMARK    5  A    between atoms: O_6  and  C_21 
REMARK    6  A    between atoms: C_8  and  C_12 
ROOT
ATOM      1  O   UNL d   1       2.140  21.467  28.824  0.00  0.00    -0.338 OA
ATOM      2  C   UNL d   1       1.635  22.678  27.695  0.00  0.00     0.156 A 
ATOM      3  C   UNL d   1       1.467  21.817  28.174  0.00  0.00     0.191 A 
ATOM      4  C   UNL d   1       2.477  23.189  27.866  0.00  0.00     0.079 A 
ATOM      5  C   UNL d   1       3.151  22.839  28.517  0.00  0.00     0.011 A 
ATOM      6  C   UNL d   1       2.982  21.978  28.996  0.00  0.00     0.081 A 
ATOM      7  C   UNL d   1       4.023  23.382  28.686  0.00  0.00     0.077 A 
ATOM      8  C   UNL d   1       3.675  21.600  29.677  0.00  0.00     0.074 A 
ATOM      9  C   UNL d   1       4.730  23.023  29.362  0.00  0.00     0.073 A 
ATOM     10  C   UNL d   1       4.554  22.127  29.861  0.00  0.00     0.071 A 
ENDROOT
BRANCH   3  11
ATOM     11  C   UNL d   1       0.624  21.306  28.002  0.00  0.00    -0.024 A 
ATOM     12  C   UNL d   1      -0.195  21.495  28.544  0.00  0.00     0.049 A 
ATOM     13  C   UNL d   1      -1.037  20.984  28.372  0.00  0.00     0.099 A 
ATOM     14  C   UNL d   1      -1.060  20.284  27.659  0.00  0.00     0.098 A 
ATOM     15  C   UNL d   1      -0.241  20.094  27.117  0.00  0.00     0.040 A 
ATOM     16  C   UNL d   1       0.601  20.606  27.289  0.00  0.00     0.013 A 
BRANCH  13  17
ATOM     17  O   UNL d   1      -1.856  21.173  28.914  0.00  0.00    -0.358 OA
ATOM     18  H   UNL d   1      -2.125  21.731  28.885  0.00  0.00     0.217 HD
ENDBRANCH  13  17
BRANCH  14  19
ATOM     19  O   UNL d   1      -1.902  19.773  27.487  0.00  0.00    -0.358 OA
ATOM     20  H   UNL d   1      -1.880  19.159  27.400  0.00  0.00     0.217 HD
ENDBRANCH  14  19
ENDBRANCH   3  11
BRANCH   2  21
ATOM     21  O   UNL d   1       0.962  23.029  27.044  0.00  0.00    -0.392 OA
ATOM     22  H   UNL d   1       1.082  23.544  26.721  0.00  0.00     0.210 HD
ENDBRANCH   2  21
BRANCH   7  23
ATOM     23  O   UNL d   1       4.181  24.242  28.201  0.00  0.00    -0.360 OA
ATOM     24  H   UNL d   1       3.701  24.599  28.038  0.00  0.00     0.217 HD
ENDBRANCH   7  23
BRANCH  10  25
ATOM     25  O   UNL d   1       5.226  21.773  30.512  0.00  0.00    -0.361 OA
ATOM     26  H   UNL d   1       5.694  22.132  30.701  0.00  0.00     0.217 HD
ENDBRANCH  10  25
TORSDOF 6
ENDMDL
MODEL 5
REMARK VINA RESULT:     0.000     67.735     68.844
REMARK INTER + INTRA:           3.468
REMARK INTER:                   0.000
REMARK INTRA:                   3.468
REMARK UNBOUND:                 3.468
REMARK  6 active torsions:
REMARK  status: ('A' for Active; 'I' for Inactive)
REMARK    1  A    between atoms: O_2  and  C_7 
REMARK    2  A    between atoms: O_3  and  C_13 
REMARK    3  A    between atoms: O_4  and  C_18 
REMARK    4  A    between atoms: O_5  and  C_19 
REMARK    5  A    between atoms: O_6  and  C_21 
REMARK    6  A    between atoms: C_8  and  C_12 
ROOT
ATOM      1  O   UNL d   1      -8.860 -31.514 -24.172  0.00  0.00    -0.338 OA
ATOM      2  C   UNL d   1      -7.833 -30.144 -23.911  0.00  0.00     0.156 A 
ATOM      3  C   UNL d   1      -8.403 -30.881 -23.547  0.00  0.00     0.191 A 
ATOM      4  C   UNL d   1      -7.720 -30.040 -24.899  0.00  0.00     0.079 A 
ATOM      5  C   UNL d   1      -8.177 -30.673 -25.524  0.00  0.00     0.011 A 
ATOM      6  C   UNL d   1      -8.748 -31.410 -25.160  0.00  0.00     0.081 A 
ATOM      7  C   UNL d   1      -8.051 -30.552 -26.550  0.00  0.00     0.077 A 
ATOM      8  C   UNL d   1      -9.230 -32.077 -25.799  0.00  0.00     0.074 A 
ATOM      9  C   UNL d   1      -8.524 -31.207 -27.207  0.00  0.00     0.073 A 
ATOM     10  C   UNL d   1      -9.117 -31.975 -26.829  0.00  0.00     0.071 A 
ENDROOT
BRANCH   3  11
ATOM     11  C   UNL d   1      -8.516 -30.985 -22.559  0.00  0.00    -0.024 A 
ATOM     12  C   UNL d   1      -9.252 -30.501 -22.086  0.00  0.00     0.049 A 
ATOM     13  C   UNL d   1      -9.365 -30.605 -21.098  0.00  0.00     0.099 A 
ATOM     14  C   UNL d   1      -8.741 -31.194 -20.583  0.00  0.00     0.098 A 
ATOM     15  C   UNL d   1      -8.005 -31.678 -21.056  0.00  0.00     0.040 A 
ATOM     16  C   UNL d   1      -7.893 -31.574 -22.044  0.00  0.00     0.013 A 
BRANCH  13  17
ATOM     17  O   UNL d   1     -10.101 -30.121 -20.625  0.00  0.00    -0.358 OA
ATOM     18  H   UNL d   1     -10.125 -29.502 -20.642  0.00  0.00     0.217 HD
ENDBRANCH  13  17
BRANCH  14  19
ATOM     19  O   UNL d   1      -8.854 -31.298 -19.595  0.00  0.00    -0.358 OA
ATOM     20  H   UNL d   1      -9.097 -30.836 -19.260  0.00  0.00     0.217 HD
ENDBRANCH  14  19
ENDBRANCH   3  11
BRANCH   2  21
ATOM     21  O   UNL d   1      -7.376 -29.511 -23.286  0.00  0.00    -0.392 OA
ATOM     22  H   UNL d   1      -6.770 -29.573 -23.171  0.00  0.00     0.210 HD
ENDBRANCH   2  21
BRANCH   7  23
ATOM     23  O   UNL d   1      -7.478 -29.811 -26.902  0.00  0.00    -0.360 OA
ATOM     24  H   UNL d   1      -7.354 -29.320 -26.546  0.00  0.00     0.217 HD
ENDBRANCH   7  23
BRANCH  10  25
ATOM     25  O   UNL d   1      -9.576 -32.609 -27.451  0.00  0.00    -0.361 OA
ATOM     26  H   UNL d   1      -9.385 -32.661 -28.038  0.00  0.00     0.217 HD
ENDBRANCH  10  25
TORSDOF 6
ENDMDL
