MODEL 1
REMARK VINA RESULT:    -8.910      0.000      0.000
REMARK INTER + INTRA:          -0.797
REMARK INTER:                 -11.196
REMARK INTRA:                  10.399
REMARK UNBOUND:                10.718
REMARK  5 active torsions:
REMARK  status: ('A' for Active; 'I' for Inactive)
REMARK    1  A    between atoms: C_6  and  C_13 
REMARK    2  A    between atoms: C_13  and  C_19 
REMARK    3  A    between atoms: C_19  and  C_24 
REMARK    4  A    between atoms: C_24  and  C_25 
REMARK    5  A    between atoms: C_25  and  C_26 
ROOT
ATOM      1  O   UNL d   1      -3.487 -22.698  -8.465  0.00  0.00    -0.293 OA
ATOM      2  C   UNL d   1       1.592 -19.672 -10.324  0.00  0.00    -0.036 A 
ATOM      3  C   UNL d   1       1.638 -20.265  -9.520  0.00  0.00    -0.002 A 
ATOM      4  C   UNL d   1       0.823 -20.757  -9.214  0.00  0.00    -0.004 A 
ATOM      5  C   UNL d   1      -0.039 -20.655  -9.711  0.00  0.00     0.002 A 
ATOM      6  C   UNL d   1       2.493 -19.278 -10.463  0.00  0.00    -0.002 A 
ATOM      7  C   UNL d   1       0.730 -19.570 -10.821  0.00  0.00     0.010 A 
ATOM      8  C   UNL d   1       2.568 -20.233  -9.170  0.00  0.00     0.006 A 
ATOM      9  C   UNL d   1      -0.896 -21.161  -9.404  0.00  0.00    -0.016 A 
ATOM     10  C   UNL d   1      -0.085 -20.062 -10.515  0.00  0.00     0.007 A 
ATOM     11  C   UNL d   1       3.096 -19.624  -9.753  0.00  0.00     0.006 A 
ATOM     12  C   UNL d   1       0.887 -21.372  -8.375  0.00  0.00     0.010 A 
ATOM     13  C   UNL d   1       1.545 -19.079 -11.127  0.00  0.00     0.016 C 
ATOM     14  C   UNL d   1      -0.855 -21.781  -8.568  0.00  0.00    -0.068 A 
ATOM     15  C   UNL d   1       0.042 -21.887  -8.049  0.00  0.00     0.035 A 
ATOM     16  C   UNL d   1      -1.820 -21.035  -9.960  0.00  0.00     0.022 A 
ATOM     17  C   UNL d   1      -0.935 -20.566 -10.207  0.00  0.00     0.020 C 
ATOM     18  C   UNL d   1      -2.713 -21.562  -9.640  0.00  0.00     0.084 A 
ATOM     19  C   UNL d   1      -1.735 -22.318  -8.229  0.00  0.00     0.053 A 
ATOM     20  C   UNL d   1      -2.670 -22.207  -8.769  0.00  0.00     0.149 A 
ENDROOT
BRANCH   6  21
ATOM     21  C   UNL d   1       2.750 -18.644 -11.193  0.00  0.00    -0.014 C 
ATOM     22  C   UNL d   1       2.616 -17.661 -11.071  0.00  0.00     0.010 C 
BRANCH  21  23
ATOM     23  C   UNL d   1       3.142 -18.994 -12.045  0.00  0.00     0.005 C 
BRANCH  23  24
ATOM     24  C   UNL d   1       3.726 -18.406 -12.604  0.00  0.00     0.005 C 
BRANCH  24  25
ATOM     25  C   UNL d   1       4.150 -18.768 -13.435  0.00  0.00    -0.015 C 
ATOM     26  C   UNL d   1       3.779 -19.589 -13.868  0.00  0.00     0.010 C 
BRANCH  25  27
ATOM     27  C   UNL d   1       4.944 -18.308 -13.831  0.00  0.00    -0.019 C 
ATOM     28  C   UNL d   1       4.871 -17.358 -14.135  0.00  0.00     0.010 C 
ATOM     29  C   UNL d   1       5.812 -18.798 -13.924  0.00  0.00     0.010 C 
ENDBRANCH  25  27
ENDBRANCH  24  25
ENDBRANCH  23  24
ENDBRANCH  21  23
ENDBRANCH   6  21
TORSDOF 5
ENDMDL
MODEL 2
REMARK VINA RESULT:    -8.889      2.832      7.108
REMARK INTER + INTRA:          -0.769
REMARK INTER:                 -11.394
REMARK INTRA:                  10.625
REMARK UNBOUND:                10.718
REMARK  5 active torsions:
REMARK  status: ('A' for Active; 'I' for Inactive)
REMARK    1  A    between atoms: C_6  and  C_13 
REMARK    2  A    between atoms: C_13  and  C_19 
REMARK    3  A    between atoms: C_19  and  C_24 
REMARK    4  A    between atoms: C_24  and  C_25 
REMARK    5  A    between atoms: C_25  and  C_26 
ROOT
ATOM      1  O   UNL d   1       6.804 -17.433 -16.299  0.00  0.00    -0.293 OA
ATOM      2  C   UNL d   1       2.513 -19.512 -12.342  0.00  0.00    -0.036 A 
ATOM      3  C   UNL d   1       2.655 -19.988 -13.210  0.00  0.00    -0.002 A 
ATOM      4  C   UNL d   1       3.345 -19.659 -13.854  0.00  0.00    -0.004 A 
ATOM      5  C   UNL d   1       3.894 -18.854 -13.630  0.00  0.00     0.002 A 
ATOM      6  C   UNL d   1       1.793 -19.987 -11.849  0.00  0.00    -0.002 A 
ATOM      7  C   UNL d   1       3.061 -18.707 -12.118  0.00  0.00     0.010 A 
ATOM      8  C   UNL d   1       2.021 -20.753 -13.245  0.00  0.00     0.006 A 
ATOM      9  C   UNL d   1       4.617 -18.499 -14.290  0.00  0.00    -0.016 A 
ATOM     10  C   UNL d   1       3.752 -18.377 -12.762  0.00  0.00     0.007 A 
ATOM     11  C   UNL d   1       1.489 -20.753 -12.405  0.00  0.00     0.006 A 
ATOM     12  C   UNL d   1       3.481 -20.166 -14.754  0.00  0.00     0.010 A 
ATOM     13  C   UNL d   1       2.371 -19.036 -11.474  0.00  0.00     0.016 C 
ATOM     14  C   UNL d   1       4.770 -18.990 -15.197  0.00  0.00    -0.068 A 
ATOM     15  C   UNL d   1       4.199 -19.829 -15.430  0.00  0.00     0.035 A 
ATOM     16  C   UNL d   1       5.200 -17.623 -14.026  0.00  0.00     0.022 A 
ATOM     17  C   UNL d   1       4.469 -18.028 -13.421  0.00  0.00     0.020 C 
ATOM     18  C   UNL d   1       5.953 -17.253 -14.714  0.00  0.00     0.084 A 
ATOM     19  C   UNL d   1       5.517 -18.639 -15.901  0.00  0.00     0.053 A 
ATOM     20  C   UNL d   1       6.113 -17.765 -15.658  0.00  0.00     0.149 A 
ENDROOT
BRANCH   6  21
ATOM     21  C   UNL d   1       1.435 -19.738 -10.948  0.00  0.00    -0.014 C 
ATOM     22  C   UNL d   1       2.026 -19.795 -10.143  0.00  0.00     0.010 C 
BRANCH  21  23
ATOM     23  C   UNL d   1       0.487 -19.432 -10.853  0.00  0.00     0.005 C 
BRANCH  23  24
ATOM     24  C   UNL d   1      -0.074 -19.773 -10.099  0.00  0.00     0.005 C 
BRANCH  24  25
ATOM     25  C   UNL d   1      -1.071 -19.705 -10.148  0.00  0.00    -0.015 C 
ATOM     26  C   UNL d   1      -1.497 -18.875 -10.508  0.00  0.00     0.010 C 
BRANCH  25  27
ATOM     27  C   UNL d   1      -1.639 -20.466  -9.838  0.00  0.00    -0.019 C 
ATOM     28  C   UNL d   1      -2.315 -20.869 -10.455  0.00  0.00     0.010 C 
ATOM     29  C   UNL d   1      -1.533 -20.825  -8.909  0.00  0.00     0.010 C 
ENDBRANCH  25  27
ENDBRANCH  24  25
ENDBRANCH  23  24
ENDBRANCH  21  23
ENDBRANCH   6  21
TORSDOF 5
ENDMDL
MODEL 3
REMARK VINA RESULT:    -8.853      2.223      6.460
REMARK INTER + INTRA:          -0.723
REMARK INTER:                 -11.005
REMARK INTRA:                  10.282
REMARK UNBOUND:                10.718
REMARK  5 active torsions:
REMARK  status: ('A' for Active; 'I' for Inactive)
REMARK    1  A    between atoms: C_6  and  C_13 
REMARK    2  A    between atoms: C_13  and  C_19 
REMARK    3  A    between atoms: C_19  and  C_24 
REMARK    4  A    between atoms: C_24  and  C_25 
REMARK    5  A    between atoms: C_25  and  C_26 
ROOT
ATOM      1  O   UNL d   1       5.178 -18.946 -12.924  0.00  0.00    -0.293 OA
ATOM      2  C   UNL d   1      -0.066 -20.344  -9.931  0.00  0.00    -0.036 A 
ATOM      3  C   UNL d   1       0.804 -20.368  -9.439  0.00  0.00    -0.002 A 
ATOM      4  C   UNL d   1       1.655 -20.143  -9.914  0.00  0.00    -0.004 A 
ATOM      5  C   UNL d   1       1.635 -19.895 -10.883  0.00  0.00     0.002 A 
ATOM      6  C   UNL d   1      -0.784 -20.594  -9.292  0.00  0.00    -0.002 A 
ATOM      7  C   UNL d   1      -0.085 -20.096 -10.900  0.00  0.00     0.010 A 
ATOM      8  C   UNL d   1       0.616 -20.633  -8.499  0.00  0.00     0.006 A 
ATOM      9  C   UNL d   1       2.513 -19.659 -11.392  0.00  0.00    -0.016 A 
ATOM     10  C   UNL d   1       0.765 -19.871 -11.376  0.00  0.00     0.007 A 
ATOM     11  C   UNL d   1      -0.365 -20.773  -8.409  0.00  0.00     0.006 A 
ATOM     12  C   UNL d   1       2.553 -20.173  -9.388  0.00  0.00     0.010 A 
ATOM     13  C   UNL d   1      -0.936 -20.320 -10.424  0.00  0.00     0.016 C 
ATOM     14  C   UNL d   1       3.423 -19.682 -10.885  0.00  0.00    -0.068 A 
ATOM     15  C   UNL d   1       3.444 -19.940  -9.876  0.00  0.00     0.035 A 
ATOM     16  C   UNL d   1       2.467 -19.393 -12.443  0.00  0.00     0.022 A 
ATOM     17  C   UNL d   1       1.639 -19.637 -11.878  0.00  0.00     0.020 C 
ATOM     18  C   UNL d   1       3.381 -19.147 -12.973  0.00  0.00     0.084 A 
ATOM     19  C   UNL d   1       4.350 -19.440 -11.394  0.00  0.00     0.053 A 
ATOM     20  C   UNL d   1       4.329 -19.171 -12.445  0.00  0.00     0.149 A 
ENDROOT
BRANCH   6  21
ATOM     21  C   UNL d   1      -1.760 -20.656  -9.501  0.00  0.00    -0.014 C 
ATOM     22  C   UNL d   1      -2.333 -19.837  -9.463  0.00  0.00     0.010 C 
BRANCH  21  23
ATOM     23  C   UNL d   1      -2.164 -21.538  -9.749  0.00  0.00     0.005 C 
BRANCH  23  24
ATOM     24  C   UNL d   1      -2.976 -21.868  -9.266  0.00  0.00     0.005 C 
BRANCH  24  25
ATOM     25  C   UNL d   1      -3.193 -22.845  -9.265  0.00  0.00    -0.015 C 
ATOM     26  C   UNL d   1      -3.023 -23.395 -10.083  0.00  0.00     0.010 C 
BRANCH  25  27
ATOM     27  C   UNL d   1      -3.579 -23.269  -8.447  0.00  0.00    -0.019 C 
ATOM     28  C   UNL d   1      -3.015 -23.875  -7.885  0.00  0.00     0.010 C 
ATOM     29  C   UNL d   1      -4.529 -23.089  -8.190  0.00  0.00     0.010 C 
ENDBRANCH  25  27
ENDBRANCH  24  25
ENDBRANCH  23  24
ENDBRANCH  21  23
ENDBRANCH   6  21
TORSDOF 5
ENDMDL
MODEL 4
REMARK VINA RESULT:    -8.607      2.524      6.472
REMARK INTER + INTRA:          -0.405
REMARK INTER:                 -11.219
REMARK INTRA:                  10.813
REMARK UNBOUND:                10.718
REMARK  5 active torsions:
REMARK  status: ('A' for Active; 'I' for Inactive)
REMARK    1  A    between atoms: C_6  and  C_13 
REMARK    2  A    between atoms: C_13  and  C_19 
REMARK    3  A    between atoms: C_19  and  C_24 
REMARK    4  A    between atoms: C_24  and  C_25 
REMARK    5  A    between atoms: C_25  and  C_26 
ROOT
ATOM      1  O   UNL d   1       4.333 -20.155 -17.053  0.00  0.00    -0.293 OA
ATOM      2  C   UNL d   1       1.453 -19.741 -11.582  0.00  0.00    -0.036 A 
ATOM      3  C   UNL d   1       2.361 -19.336 -11.693  0.00  0.00    -0.002 A 
ATOM      4  C   UNL d   1       2.832 -19.399 -12.573  0.00  0.00    -0.004 A 
ATOM      5  C   UNL d   1       2.396 -19.866 -13.341  0.00  0.00     0.002 A 
ATOM      6  C   UNL d   1       1.158 -19.575 -10.648  0.00  0.00    -0.002 A 
ATOM      7  C   UNL d   1       1.017 -20.209 -12.351  0.00  0.00     0.010 A 
ATOM      8  C   UNL d   1       2.618 -18.923 -10.826  0.00  0.00     0.006 A 
ATOM      9  C   UNL d   1       2.875 -19.940 -14.264  0.00  0.00    -0.016 A 
ATOM     10  C   UNL d   1       1.489 -20.272 -13.230  0.00  0.00     0.007 A 
ATOM     11  C   UNL d   1       1.876 -19.070 -10.181  0.00  0.00     0.006 A 
ATOM     12  C   UNL d   1       3.777 -18.971 -12.673  0.00  0.00     0.010 A 
ATOM     13  C   UNL d   1       0.546 -20.147 -11.471  0.00  0.00     0.016 C 
ATOM     14  C   UNL d   1       3.820 -19.520 -14.387  0.00  0.00    -0.068 A 
ATOM     15  C   UNL d   1       4.275 -19.032 -13.586  0.00  0.00     0.035 A 
ATOM     16  C   UNL d   1       2.382 -20.452 -15.083  0.00  0.00     0.022 A 
ATOM     17  C   UNL d   1       1.967 -20.342 -14.145  0.00  0.00     0.020 C 
ATOM     18  C   UNL d   1       2.880 -20.528 -16.044  0.00  0.00     0.084 A 
ATOM     19  C   UNL d   1       4.338 -19.583 -15.338  0.00  0.00     0.053 A 
ATOM     20  C   UNL d   1       3.865 -20.091 -16.172  0.00  0.00     0.149 A 
ENDROOT
BRANCH   6  21
ATOM     21  C   UNL d   1       0.289 -19.865 -10.246  0.00  0.00    -0.014 C 
ATOM     22  C   UNL d   1      -0.560 -19.406 -10.508  0.00  0.00     0.010 C 
BRANCH  21  23
ATOM     23  C   UNL d   1       0.270 -20.614  -9.583  0.00  0.00     0.005 C 
BRANCH  23  24
ATOM     24  C   UNL d   1      -0.551 -20.773  -9.034  0.00  0.00     0.005 C 
BRANCH  24  25
ATOM     25  C   UNL d   1      -0.528 -21.431  -8.281  0.00  0.00    -0.015 C 
ATOM     26  C   UNL d   1       0.145 -21.329  -7.548  0.00  0.00     0.010 C 
BRANCH  25  27
ATOM     27  C   UNL d   1      -1.177 -22.191  -8.262  0.00  0.00    -0.019 C 
ATOM     28  C   UNL d   1      -0.902 -23.074  -7.880  0.00  0.00     0.010 C 
ATOM     29  C   UNL d   1      -2.102 -22.068  -8.623  0.00  0.00     0.010 C 
ENDBRANCH  25  27
ENDBRANCH  24  25
ENDBRANCH  23  24
ENDBRANCH  21  23
ENDBRANCH   6  21
TORSDOF 5
ENDMDL
MODEL 5
REMARK VINA RESULT:    -8.503      2.553      6.665
REMARK INTER + INTRA:          -0.271
REMARK INTER:                 -10.722
REMARK INTRA:                  10.451
REMARK UNBOUND:                10.718
REMARK  5 active torsions:
REMARK  status: ('A' for Active; 'I' for Inactive)
REMARK    1  A    between atoms: C_6  and  C_13 
REMARK    2  A    between atoms: C_13  and  C_19 
REMARK    3  A    between atoms: C_19  and  C_24 
REMARK    4  A    between atoms: C_24  and  C_25 
REMARK    5  A    between atoms: C_25  and  C_26 
ROOT
ATOM      1  O   UNL d   1       5.999 -18.323 -15.210  0.00  0.00    -0.293 OA
ATOM      2  C   UNL d   1       1.207 -20.019 -11.666  0.00  0.00    -0.036 A 
ATOM      3  C   UNL d   1       1.433 -20.557 -12.478  0.00  0.00    -0.002 A 
ATOM      4  C   UNL d   1       2.205 -20.290 -13.055  0.00  0.00    -0.004 A 
ATOM      5  C   UNL d   1       2.750 -19.485 -12.820  0.00  0.00     0.002 A 
ATOM      6  C   UNL d   1       0.419 -20.441 -11.232  0.00  0.00    -0.002 A 
ATOM      7  C   UNL d   1       1.752 -19.215 -11.431  0.00  0.00     0.010 A 
ATOM      8  C   UNL d   1       0.783 -21.306 -12.539  0.00  0.00     0.006 A 
ATOM      9  C   UNL d   1       3.557 -19.194 -13.411  0.00  0.00    -0.016 A 
ATOM     10  C   UNL d   1       2.524 -18.947 -12.008  0.00  0.00     0.007 A 
ATOM     11  C   UNL d   1       0.157 -21.235 -11.770  0.00  0.00     0.006 A 
ATOM     12  C   UNL d   1       2.429 -20.860 -13.898  0.00  0.00     0.010 A 
ATOM     13  C   UNL d   1       0.980 -19.482 -10.854  0.00  0.00     0.016 C 
ATOM     14  C   UNL d   1       3.799 -19.750 -14.259  0.00  0.00    -0.068 A 
ATOM     15  C   UNL d   1       3.232 -20.588 -14.504  0.00  0.00     0.035 A 
ATOM     16  C   UNL d   1       4.134 -18.318 -13.136  0.00  0.00     0.022 A 
ATOM     17  C   UNL d   1       3.325 -18.662 -12.598  0.00  0.00     0.020 C 
ATOM     18  C   UNL d   1       4.975 -18.015 -13.752  0.00  0.00     0.084 A 
ATOM     19  C   UNL d   1       4.635 -19.467 -14.891  0.00  0.00     0.053 A 
ATOM     20  C   UNL d   1       5.227 -18.593 -14.635  0.00  0.00     0.149 A 
ENDROOT
BRANCH   6  21
ATOM     21  C   UNL d   1      -0.033 -20.122 -10.398  0.00  0.00    -0.014 C 
ATOM     22  C   UNL d   1      -0.702 -19.380 -10.445  0.00  0.00     0.010 C 
BRANCH  21  23
ATOM     23  C   UNL d   1       0.184 -20.546  -9.518  0.00  0.00     0.005 C 
BRANCH  23  24
ATOM     24  C   UNL d   1      -0.552 -20.889  -8.935  0.00  0.00     0.005 C 
BRANCH  24  25
ATOM     25  C   UNL d   1      -0.334 -21.441  -8.129  0.00  0.00    -0.015 C 
ATOM     26  C   UNL d   1       0.378 -21.139  -7.495  0.00  0.00     0.010 C 
BRANCH  25  27
ATOM     27  C   UNL d   1      -0.829 -22.292  -7.958  0.00  0.00    -0.019 C 
ATOM     28  C   UNL d   1      -0.366 -23.057  -7.508  0.00  0.00     0.010 C 
ATOM     29  C   UNL d   1      -1.786 -22.380  -8.237  0.00  0.00     0.010 C 
ENDBRANCH  25  27
ENDBRANCH  24  25
ENDBRANCH  23  24
ENDBRANCH  21  23
ENDBRANCH   6  21
TORSDOF 5
ENDMDL
