MODEL 1
REMARK VINA RESULT:    -3.720      0.000      0.000
REMARK INTER + INTRA:          -3.769
REMARK INTER:                  -4.705
REMARK INTRA:                   0.936
REMARK UNBOUND:                 0.930
REMARK  6 active torsions:
REMARK  status: ('A' for Active; 'I' for Inactive)
REMARK    1  A    between atoms: O_1  and  C_8 
REMARK    2  A    between atoms: O_2  and  C_9 
REMARK    3  A    between atoms: O_3  and  C_13 
REMARK    4  A    between atoms: C_5  and  C_11 
REMARK    5  A    between atoms: C_11  and  C_12 
REMARK    6  A    between atoms: C_12  and  C_13 
ROOT
ATOM      1  C   UNL d   1      33.207  34.863  37.199  0.00  0.00    -0.033 A 
ATOM      2  C   UNL d   1      33.639  33.999  37.455  0.00  0.00     0.050 A 
ATOM      3  C   UNL d   1      32.672  34.925  36.356  0.00  0.00     0.014 A 
ATOM      4  C   UNL d   1      33.537  33.196  36.868  0.00  0.00     0.099 A 
ATOM      5  C   UNL d   1      33.003  33.257  36.025  0.00  0.00     0.098 A 
ATOM      6  C   UNL d   1      32.570  34.122  35.769  0.00  0.00     0.040 A 
ENDROOT
BRANCH   1   7
ATOM      7  C   UNL d   1      33.309  35.667  37.786  0.00  0.00     0.018 C 
BRANCH   7   8
ATOM      8  C   UNL d   1      32.599  35.891  38.454  0.00  0.00     0.082 C 
BRANCH   8   9
ATOM      9  C   UNL d   1      32.700  36.696  39.039  0.00  0.00     0.165 C 
ATOM     10  O   UNL d   1      32.379  37.588  38.720  0.00  0.00    -0.647 OA
BRANCH   9  11
ATOM     11  O   UNL d   1      33.120  36.609  39.942  0.00  0.00    -0.773 OA
ATOM     12  H   UNL d   1      32.836  36.844  40.440  0.00  0.00     0.167 HD
ENDBRANCH   9  11
ENDBRANCH   8   9
ENDBRANCH   7   8
ENDBRANCH   1   7
BRANCH   4  13
ATOM     13  O   UNL d   1      33.969  32.331  37.124  0.00  0.00    -0.358 OA
ATOM     14  H   UNL d   1      34.139  31.927  36.685  0.00  0.00     0.217 HD
ENDBRANCH   4  13
BRANCH   5  15
ATOM     15  O   UNL d   1      32.901  32.454  35.438  0.00  0.00    -0.358 OA
ATOM     16  H   UNL d   1      32.337  32.223  35.324  0.00  0.00     0.217 HD
ENDBRANCH   5  15
TORSDOF 6
ENDMDL
MODEL 2
REMARK VINA RESULT:    -3.620      0.866      4.002
REMARK INTER + INTRA:          -3.643
REMARK INTER:                  -4.585
REMARK INTRA:                   0.942
REMARK UNBOUND:                 0.930
REMARK  6 active torsions:
REMARK  status: ('A' for Active; 'I' for Inactive)
REMARK    1  A    between atoms: O_1  and  C_8 
REMARK    2  A    between atoms: O_2  and  C_9 
REMARK    3  A    between atoms: O_3  and  C_13 
REMARK    4  A    between atoms: C_5  and  C_11 
REMARK    5  A    between atoms: C_11  and  C_12 
REMARK    6  A    between atoms: C_12  and  C_13 
ROOT
ATOM      1  C   UNL d   1      33.365  35.284  37.787  0.00  0.00    -0.033 A 
ATOM      2  C   UNL d   1      33.338  35.540  38.753  0.00  0.00     0.050 A 
ATOM      3  C   UNL d   1      32.960  35.886  37.099  0.00  0.00     0.014 A 
ATOM      4  C   UNL d   1      32.905  36.398  39.032  0.00  0.00     0.099 A 
ATOM      5  C   UNL d   1      32.500  37.000  38.343  0.00  0.00     0.098 A 
ATOM      6  C   UNL d   1      32.528  36.744  37.377  0.00  0.00     0.040 A 
ENDROOT
BRANCH   1   7
ATOM      7  C   UNL d   1      33.798  34.427  37.509  0.00  0.00     0.018 C 
BRANCH   7   8
ATOM      8  C   UNL d   1      33.238  33.614  37.349  0.00  0.00     0.082 C 
BRANCH   8   9
ATOM      9  C   UNL d   1      33.664  32.771  37.019  0.00  0.00     0.165 C 
ATOM     10  O   UNL d   1      33.545  32.490  36.067  0.00  0.00    -0.647 OA
BRANCH   9  11
ATOM     11  O   UNL d   1      34.208  32.209  37.642  0.00  0.00    -0.773 OA
ATOM     12  H   UNL d   1      34.826  32.214  37.604  0.00  0.00     0.167 HD
ENDBRANCH   9  11
ENDBRANCH   8   9
ENDBRANCH   7   8
ENDBRANCH   1   7
BRANCH   4  13
ATOM     13  O   UNL d   1      32.878  36.653  39.998  0.00  0.00    -0.358 OA
ATOM     14  H   UNL d   1      32.432  36.429  40.366  0.00  0.00     0.217 HD
ENDBRANCH   4  13
BRANCH   5  15
ATOM     15  O   UNL d   1      32.068  37.857  38.622  0.00  0.00    -0.358 OA
ATOM     16  H   UNL d   1      32.051  38.337  38.229  0.00  0.00     0.217 HD
ENDBRANCH   5  15
TORSDOF 6
ENDMDL
MODEL 3
REMARK VINA RESULT:    -3.481      1.577      2.234
REMARK INTER + INTRA:          -3.467
REMARK INTER:                  -4.544
REMARK INTRA:                   1.077
REMARK UNBOUND:                 0.930
REMARK  6 active torsions:
REMARK  status: ('A' for Active; 'I' for Inactive)
REMARK    1  A    between atoms: O_1  and  C_8 
REMARK    2  A    between atoms: O_2  and  C_9 
REMARK    3  A    between atoms: O_3  and  C_13 
REMARK    4  A    between atoms: C_5  and  C_11 
REMARK    5  A    between atoms: C_11  and  C_12 
REMARK    6  A    between atoms: C_12  and  C_13 
ROOT
ATOM      1  C   UNL d   1      33.013  35.642  37.072  0.00  0.00    -0.033 A 
ATOM      2  C   UNL d   1      32.650  35.151  36.280  0.00  0.00     0.050 A 
ATOM      3  C   UNL d   1      33.558  35.155  37.755  0.00  0.00     0.014 A 
ATOM      4  C   UNL d   1      32.831  34.174  36.171  0.00  0.00     0.099 A 
ATOM      5  C   UNL d   1      33.376  33.687  36.855  0.00  0.00     0.098 A 
ATOM      6  C   UNL d   1      33.739  34.178  37.647  0.00  0.00     0.040 A 
ENDROOT
BRANCH   1   7
ATOM      7  C   UNL d   1      32.832  36.619  37.181  0.00  0.00     0.018 C 
BRANCH   7   8
ATOM      8  C   UNL d   1      32.674  37.191  36.376  0.00  0.00     0.082 C 
BRANCH   8   9
ATOM      9  C   UNL d   1      32.681  38.187  36.462  0.00  0.00     0.165 C 
ATOM     10  O   UNL d   1      31.960  38.650  36.978  0.00  0.00    -0.647 OA
BRANCH   9  11
ATOM     11  O   UNL d   1      33.408  38.722  36.031  0.00  0.00    -0.773 OA
ATOM     12  H   UNL d   1      33.368  39.340  36.010  0.00  0.00     0.167 HD
ENDBRANCH   9  11
ENDBRANCH   8   9
ENDBRANCH   7   8
ENDBRANCH   1   7
BRANCH   4  13
ATOM     13  O   UNL d   1      32.468  33.683  35.379  0.00  0.00    -0.358 OA
ATOM     14  H   UNL d   1      32.196  33.131  35.455  0.00  0.00     0.217 HD
ENDBRANCH   4  13
BRANCH   5  15
ATOM     15  O   UNL d   1      33.557  32.710  36.746  0.00  0.00    -0.358 OA
ATOM     16  H   UNL d   1      33.650  32.354  37.245  0.00  0.00     0.217 HD
ENDBRANCH   5  15
TORSDOF 6
ENDMDL
MODEL 4
REMARK VINA RESULT:    -3.260     11.302     13.132
REMARK INTER + INTRA:          -3.188
REMARK INTER:                  -4.158
REMARK INTRA:                   0.970
REMARK UNBOUND:                 0.930
REMARK  6 active torsions:
REMARK  status: ('A' for Active; 'I' for Inactive)
REMARK    1  A    between atoms: O_1  and  C_8 
REMARK    2  A    between atoms: O_2  and  C_9 
REMARK    3  A    between atoms: O_3  and  C_13 
REMARK    4  A    between atoms: C_5  and  C_11 
REMARK    5  A    between atoms: C_11  and  C_12 
REMARK    6  A    between atoms: C_12  and  C_13 
ROOT
ATOM      1  C   UNL d   1      35.649  32.286  24.817  0.00  0.00    -0.033 A 
ATOM      2  C   UNL d   1      36.054  33.193  24.926  0.00  0.00     0.050 A 
ATOM      3  C   UNL d   1      35.242  32.022  23.942  0.00  0.00     0.014 A 
ATOM      4  C   UNL d   1      36.052  33.837  24.160  0.00  0.00     0.099 A 
ATOM      5  C   UNL d   1      35.645  33.573  23.286  0.00  0.00     0.098 A 
ATOM      6  C   UNL d   1      35.240  32.665  23.177  0.00  0.00     0.040 A 
ENDROOT
BRANCH   1   7
ATOM      7  C   UNL d   1      35.650  31.642  25.582  0.00  0.00     0.018 C 
BRANCH   7   8
ATOM      8  C   UNL d   1      35.155  31.863  26.422  0.00  0.00     0.082 C 
BRANCH   8   9
ATOM      9  C   UNL d   1      35.127  31.204  27.174  0.00  0.00     0.165 C 
ATOM     10  O   UNL d   1      34.581  30.371  27.089  0.00  0.00    -0.647 OA
BRANCH   9  11
ATOM     11  O   UNL d   1      35.646  31.378  28.011  0.00  0.00    -0.773 OA
ATOM     12  H   UNL d   1      35.741  31.960  28.201  0.00  0.00     0.167 HD
ENDBRANCH   9  11
ENDBRANCH   8   9
ENDBRANCH   7   8
ENDBRANCH   1   7
BRANCH   4  13
ATOM     13  O   UNL d   1      36.457  34.745  24.270  0.00  0.00    -0.358 OA
ATOM     14  H   UNL d   1      36.092  35.238  24.357  0.00  0.00     0.217 HD
ENDBRANCH   4  13
BRANCH   5  15
ATOM     15  O   UNL d   1      35.643  34.217  22.521  0.00  0.00    -0.358 OA
ATOM     16  H   UNL d   1      35.106  34.432  22.298  0.00  0.00     0.217 HD
ENDBRANCH   5  15
TORSDOF 6
ENDMDL
MODEL 5
REMARK VINA RESULT:    -3.230     10.032     11.952
REMARK INTER + INTRA:          -3.150
REMARK INTER:                  -4.224
REMARK INTRA:                   1.074
REMARK UNBOUND:                 0.930
REMARK  6 active torsions:
REMARK  status: ('A' for Active; 'I' for Inactive)
REMARK    1  A    between atoms: O_1  and  C_8 
REMARK    2  A    between atoms: O_2  and  C_9 
REMARK    3  A    between atoms: O_3  and  C_13 
REMARK    4  A    between atoms: C_5  and  C_11 
REMARK    5  A    between atoms: C_11  and  C_12 
REMARK    6  A    between atoms: C_12  and  C_13 
ROOT
ATOM      1  C   UNL d   1      35.267  31.069  26.650  0.00  0.00    -0.033 A 
ATOM      2  C   UNL d   1      35.555  30.429  25.938  0.00  0.00     0.050 A 
ATOM      3  C   UNL d   1      35.174  32.043  26.440  0.00  0.00     0.014 A 
ATOM      4  C   UNL d   1      35.750  30.762  25.015  0.00  0.00     0.099 A 
ATOM      5  C   UNL d   1      35.656  31.735  24.805  0.00  0.00     0.098 A 
ATOM      6  C   UNL d   1      35.368  32.376  25.517  0.00  0.00     0.040 A 
ENDROOT
BRANCH   1   7
ATOM      7  C   UNL d   1      35.073  30.736  27.573  0.00  0.00     0.018 C 
BRANCH   7   8
ATOM      8  C   UNL d   1      35.725  30.136  28.036  0.00  0.00     0.082 C 
BRANCH   8   9
ATOM      9  C   UNL d   1      35.764  30.115  29.035  0.00  0.00     0.165 C 
ATOM     10  O   UNL d   1      34.997  29.743  29.558  0.00  0.00    -0.647 OA
BRANCH   9  11
ATOM     11  O   UNL d   1      36.570  30.467  29.511  0.00  0.00    -0.773 OA
ATOM     12  H   UNL d   1      36.942  30.876  29.230  0.00  0.00     0.167 HD
ENDBRANCH   9  11
ENDBRANCH   8   9
ENDBRANCH   7   8
ENDBRANCH   1   7
BRANCH   4  13
ATOM     13  O   UNL d   1      36.038  30.122  24.303  0.00  0.00    -0.358 OA
ATOM     14  H   UNL d   1      35.615  29.782  24.003  0.00  0.00     0.217 HD
ENDBRANCH   4  13
BRANCH   5  15
ATOM     15  O   UNL d   1      35.851  32.068  23.882  0.00  0.00    -0.358 OA
ATOM     16  H   UNL d   1      35.414  32.374  23.565  0.00  0.00     0.217 HD
ENDBRANCH   5  15
TORSDOF 6
ENDMDL
