MODEL 1
REMARK VINA RESULT:   -10.537      0.000      0.000
REMARK INTER + INTRA:          -9.207
REMARK INTER:                 -12.833
REMARK INTRA:                   3.627
REMARK UNBOUND:                 3.486
REMARK  6 active torsions:
REMARK  status: ('A' for Active; 'I' for Inactive)
REMARK    1  A    between atoms: O_2  and  C_7 
REMARK    2  A    between atoms: O_3  and  C_13 
REMARK    3  A    between atoms: O_4  and  C_18 
REMARK    4  A    between atoms: O_5  and  C_19 
REMARK    5  A    between atoms: O_6  and  C_21 
REMARK    6  A    between atoms: C_8  and  C_12 
ROOT
ATOM      1  O   UNL d   1       5.634   3.493  32.994  0.00  0.00    -0.338 OA
ATOM      2  C   UNL d   1       5.947   2.807  31.435  0.00  0.00     0.156 A 
ATOM      3  C   UNL d   1       6.229   2.976  32.379  0.00  0.00     0.191 A 
ATOM      4  C   UNL d   1       5.069   3.155  31.106  0.00  0.00     0.079 A 
ATOM      5  C   UNL d   1       4.473   3.672  31.721  0.00  0.00     0.011 A 
ATOM      6  C   UNL d   1       4.756   3.841  32.665  0.00  0.00     0.081 A 
ATOM      7  C   UNL d   1       3.562   4.028  31.364  0.00  0.00     0.077 A 
ATOM      8  C   UNL d   1       4.147   4.378  33.318  0.00  0.00     0.074 A 
ATOM      9  C   UNL d   1       2.937   4.568  31.999  0.00  0.00     0.073 A 
ATOM     10  C   UNL d   1       3.231   4.744  32.982  0.00  0.00     0.071 A 
ENDROOT
BRANCH   3  11
ATOM     11  C   UNL d   1       7.107   2.629  32.708  0.00  0.00    -0.024 A 
ATOM     12  C   UNL d   1       7.235   1.647  32.849  0.00  0.00     0.049 A 
ATOM     13  C   UNL d   1       8.113   1.299  33.178  0.00  0.00     0.099 A 
ATOM     14  C   UNL d   1       8.863   1.933  33.366  0.00  0.00     0.098 A 
ATOM     15  C   UNL d   1       8.735   2.915  33.226  0.00  0.00     0.040 A 
ATOM     16  C   UNL d   1       7.857   3.263  32.897  0.00  0.00     0.013 A 
BRANCH  13  17
ATOM     17  O   UNL d   1       8.241   0.317  33.318  0.00  0.00    -0.358 OA
ATOM     18  H   UNL d   1       8.812   0.086  33.390  0.00  0.00     0.217 HD
ENDBRANCH  13  17
BRANCH  14  19
ATOM     19  O   UNL d   1       9.741   1.585  33.695  0.00  0.00    -0.358 OA
ATOM     20  H   UNL d   1      10.127   1.960  34.004  0.00  0.00     0.217 HD
ENDBRANCH  14  19
ENDBRANCH   3  11
BRANCH   2  21
ATOM     21  O   UNL d   1       6.542   2.290  30.820  0.00  0.00    -0.392 OA
ATOM     22  H   UNL d   1       6.853   2.583  30.371  0.00  0.00     0.210 HD
ENDBRANCH   2  21
BRANCH   7  23
ATOM     23  O   UNL d   1       3.290   3.853  30.418  0.00  0.00    -0.360 OA
ATOM     24  H   UNL d   1       3.105   3.286  30.249  0.00  0.00     0.217 HD
ENDBRANCH   7  23
BRANCH  10  25
ATOM     25  O   UNL d   1       2.638   5.260  33.600  0.00  0.00    -0.361 OA
ATOM     26  H   UNL d   1       2.233   4.963  33.962  0.00  0.00     0.217 HD
ENDBRANCH  10  25
TORSDOF 6
ENDMDL
MODEL 2
REMARK VINA RESULT:   -10.220      1.233      2.150
REMARK INTER + INTRA:          -8.825
REMARK INTER:                 -12.328
REMARK INTRA:                   3.502
REMARK UNBOUND:                 3.486
REMARK  6 active torsions:
REMARK  status: ('A' for Active; 'I' for Inactive)
REMARK    1  A    between atoms: O_2  and  C_7 
REMARK    2  A    between atoms: O_3  and  C_13 
REMARK    3  A    between atoms: O_4  and  C_18 
REMARK    4  A    between atoms: O_5  and  C_19 
REMARK    5  A    between atoms: O_6  and  C_21 
REMARK    6  A    between atoms: C_8  and  C_12 
ROOT
ATOM      1  O   UNL d   1       4.657   2.983  31.650  0.00  0.00    -0.338 OA
ATOM      2  C   UNL d   1       5.457   4.057  32.748  0.00  0.00     0.156 A 
ATOM      3  C   UNL d   1       5.432   3.192  32.247  0.00  0.00     0.191 A 
ATOM      4  C   UNL d   1       4.708   4.713  32.652  0.00  0.00     0.079 A 
ATOM      5  C   UNL d   1       3.934   4.504  32.055  0.00  0.00     0.011 A 
ATOM      6  C   UNL d   1       3.908   3.639  31.554  0.00  0.00     0.081 A 
ATOM      7  C   UNL d   1       3.161   5.196  31.965  0.00  0.00     0.077 A 
ATOM      8  C   UNL d   1       3.108   3.406  30.929  0.00  0.00     0.074 A 
ATOM      9  C   UNL d   1       2.351   4.985  31.345  0.00  0.00     0.073 A 
ATOM     10  C   UNL d   1       2.324   4.084  30.824  0.00  0.00     0.071 A 
ENDROOT
BRANCH   3  11
ATOM     11  C   UNL d   1       6.180   2.537  32.343  0.00  0.00    -0.024 A 
ATOM     12  C   UNL d   1       7.028   2.667  31.828  0.00  0.00     0.049 A 
ATOM     13  C   UNL d   1       7.777   2.011  31.924  0.00  0.00     0.099 A 
ATOM     14  C   UNL d   1       7.678   1.225  32.535  0.00  0.00     0.098 A 
ATOM     15  C   UNL d   1       6.831   1.095  33.049  0.00  0.00     0.040 A 
ATOM     16  C   UNL d   1       6.082   1.751  32.953  0.00  0.00     0.013 A 
BRANCH  13  17
ATOM     17  O   UNL d   1       8.624   2.141  31.409  0.00  0.00    -0.358 OA
ATOM     18  H   UNL d   1       9.148   1.871  31.602  0.00  0.00     0.217 HD
ENDBRANCH  13  17
BRANCH  14  19
ATOM     19  O   UNL d   1       8.427   0.569  32.630  0.00  0.00    -0.358 OA
ATOM     20  H   UNL d   1       8.588   0.210  32.151  0.00  0.00     0.217 HD
ENDBRANCH  14  19
ENDBRANCH   3  11
BRANCH   2  21
ATOM     21  O   UNL d   1       6.232   4.267  33.345  0.00  0.00    -0.392 OA
ATOM     22  H   UNL d   1       6.583   4.766  33.234  0.00  0.00     0.210 HD
ENDBRANCH   2  21
BRANCH   7  23
ATOM     23  O   UNL d   1       3.197   6.058  32.471  0.00  0.00    -0.360 OA
ATOM     24  H   UNL d   1       3.077   6.066  33.079  0.00  0.00     0.217 HD
ENDBRANCH   7  23
BRANCH  10  25
ATOM     25  O   UNL d   1       1.552   3.872  30.226  0.00  0.00    -0.361 OA
ATOM     26  H   UNL d   1       1.455   3.290  30.039  0.00  0.00     0.217 HD
ENDBRANCH  10  25
TORSDOF 6
ENDMDL
MODEL 3
REMARK VINA RESULT:   -10.011      1.147      5.031
REMARK INTER + INTRA:          -8.574
REMARK INTER:                 -12.143
REMARK INTRA:                   3.570
REMARK UNBOUND:                 3.486
REMARK  6 active torsions:
REMARK  status: ('A' for Active; 'I' for Inactive)
REMARK    1  A    between atoms: O_2  and  C_7 
REMARK    2  A    between atoms: O_3  and  C_13 
REMARK    3  A    between atoms: O_4  and  C_18 
REMARK    4  A    between atoms: O_5  and  C_19 
REMARK    5  A    between atoms: O_6  and  C_21 
REMARK    6  A    between atoms: C_8  and  C_12 
ROOT
ATOM      1  O   UNL d   1       5.577   4.322  32.962  0.00  0.00    -0.338 OA
ATOM      2  C   UNL d   1       4.672   3.403  31.807  0.00  0.00     0.156 A 
ATOM      3  C   UNL d   1       4.725   4.152  32.468  0.00  0.00     0.191 A 
ATOM      4  C   UNL d   1       5.470   2.825  31.641  0.00  0.00     0.079 A 
ATOM      5  C   UNL d   1       6.322   2.995  32.135  0.00  0.00     0.011 A 
ATOM      6  C   UNL d   1       6.376   3.744  32.796  0.00  0.00     0.081 A 
ATOM      7  C   UNL d   1       7.146   2.385  31.951  0.00  0.00     0.077 A 
ATOM      8  C   UNL d   1       7.257   3.933  33.319  0.00  0.00     0.074 A 
ATOM      9  C   UNL d   1       8.037   2.556  32.463  0.00  0.00     0.073 A 
ATOM     10  C   UNL d   1       8.093   3.335  33.151  0.00  0.00     0.071 A 
ENDROOT
BRANCH   3  11
ATOM     11  C   UNL d   1       3.927   4.730  32.634  0.00  0.00    -0.024 A 
ATOM     12  C   UNL d   1       3.382   4.604  33.463  0.00  0.00     0.049 A 
ATOM     13  C   UNL d   1       2.583   5.182  33.630  0.00  0.00     0.099 A 
ATOM     14  C   UNL d   1       2.329   5.887  32.967  0.00  0.00     0.098 A 
ATOM     15  C   UNL d   1       2.874   6.013  32.138  0.00  0.00     0.040 A 
ATOM     16  C   UNL d   1       3.673   5.434  31.972  0.00  0.00     0.013 A 
BRANCH  13  17
ATOM     17  O   UNL d   1       2.038   5.056  34.459  0.00  0.00    -0.358 OA
ATOM     18  H   UNL d   1       2.065   5.476  34.914  0.00  0.00     0.217 HD
ENDBRANCH  13  17
BRANCH  14  19
ATOM     19  O   UNL d   1       1.531   6.465  33.133  0.00  0.00    -0.358 OA
ATOM     20  H   UNL d   1       1.375   6.903  32.724  0.00  0.00     0.217 HD
ENDBRANCH  14  19
ENDBRANCH   3  11
BRANCH   2  21
ATOM     21  O   UNL d   1       3.819   3.233  31.312  0.00  0.00    -0.392 OA
ATOM     22  H   UNL d   1       3.796   2.792  30.877  0.00  0.00     0.210 HD
ENDBRANCH   2  21
BRANCH   7  23
ATOM     23  O   UNL d   1       7.081   1.639  31.288  0.00  0.00    -0.360 OA
ATOM     24  H   UNL d   1       6.647   1.202  31.355  0.00  0.00     0.217 HD
ENDBRANCH   7  23
BRANCH  10  25
ATOM     25  O   UNL d   1       8.944   3.508  33.647  0.00  0.00    -0.361 OA
ATOM     26  H   UNL d   1       9.489   3.410  33.371  0.00  0.00     0.217 HD
ENDBRANCH  10  25
TORSDOF 6
ENDMDL
MODEL 4
REMARK VINA RESULT:    -9.993      0.946      5.032
REMARK INTER + INTRA:          -8.552
REMARK INTER:                 -12.179
REMARK INTRA:                   3.627
REMARK UNBOUND:                 3.486
REMARK  6 active torsions:
REMARK  status: ('A' for Active; 'I' for Inactive)
REMARK    1  A    between atoms: O_2  and  C_7 
REMARK    2  A    between atoms: O_3  and  C_13 
REMARK    3  A    between atoms: O_4  and  C_18 
REMARK    4  A    between atoms: O_5  and  C_19 
REMARK    5  A    between atoms: O_6  and  C_21 
REMARK    6  A    between atoms: C_8  and  C_12 
ROOT
ATOM      1  O   UNL d   1       6.905   3.427  32.709  0.00  0.00    -0.338 OA
ATOM      2  C   UNL d   1       5.968   1.973  32.791  0.00  0.00     0.156 A 
ATOM      3  C   UNL d   1       6.023   2.961  32.645  0.00  0.00     0.191 A 
ATOM      4  C   UNL d   1       6.795   1.451  33.000  0.00  0.00     0.079 A 
ATOM      5  C   UNL d   1       7.677   1.917  33.064  0.00  0.00     0.011 A 
ATOM      6  C   UNL d   1       7.732   2.905  32.919  0.00  0.00     0.081 A 
ATOM      7  C   UNL d   1       8.530   1.361  33.283  0.00  0.00     0.077 A 
ATOM      8  C   UNL d   1       8.644   3.405  32.982  0.00  0.00     0.074 A 
ATOM      9  C   UNL d   1       9.452   1.840  33.351  0.00  0.00     0.073 A 
ATOM     10  C   UNL d   1       9.510   2.868  33.200  0.00  0.00     0.071 A 
ENDROOT
BRANCH   3  11
ATOM     11  C   UNL d   1       5.196   3.482  32.436  0.00  0.00    -0.024 A 
ATOM     12  C   UNL d   1       4.750   3.377  31.547  0.00  0.00     0.049 A 
ATOM     13  C   UNL d   1       3.923   3.899  31.338  0.00  0.00     0.099 A 
ATOM     14  C   UNL d   1       3.542   4.526  32.017  0.00  0.00     0.098 A 
ATOM     15  C   UNL d   1       3.988   4.631  32.906  0.00  0.00     0.040 A 
ATOM     16  C   UNL d   1       4.815   4.109  33.115  0.00  0.00     0.013 A 
BRANCH  13  17
ATOM     17  O   UNL d   1       3.477   3.793  30.449  0.00  0.00    -0.358 OA
ATOM     18  H   UNL d   1       3.674   4.122  29.962  0.00  0.00     0.217 HD
ENDBRANCH  13  17
BRANCH  14  19
ATOM     19  O   UNL d   1       2.715   5.047  31.808  0.00  0.00    -0.358 OA
ATOM     20  H   UNL d   1       2.753   5.567  31.471  0.00  0.00     0.217 HD
ENDBRANCH  14  19
ENDBRANCH   3  11
BRANCH   2  21
ATOM     21  O   UNL d   1       5.085   1.507  32.727  0.00  0.00    -0.392 OA
ATOM     22  H   UNL d   1       4.572   1.785  32.934  0.00  0.00     0.210 HD
ENDBRANCH   2  21
BRANCH   7  23
ATOM     23  O   UNL d   1       8.463   0.374  33.426  0.00  0.00    -0.360 OA
ATOM     24  H   UNL d   1       8.244   0.153  33.962  0.00  0.00     0.217 HD
ENDBRANCH   7  23
BRANCH  10  25
ATOM     25  O   UNL d   1      10.391   3.337  33.263  0.00  0.00    -0.361 OA
ATOM     26  H   UNL d   1      10.866   3.067  33.553  0.00  0.00     0.217 HD
ENDBRANCH  10  25
TORSDOF 6
ENDMDL
MODEL 5
REMARK VINA RESULT:    -9.667      1.349      2.561
REMARK INTER + INTRA:          -8.158
REMARK INTER:                 -11.997
REMARK INTRA:                   3.839
REMARK UNBOUND:                 3.486
REMARK  6 active torsions:
REMARK  status: ('A' for Active; 'I' for Inactive)
REMARK    1  A    between atoms: O_2  and  C_7 
REMARK    2  A    between atoms: O_3  and  C_13 
REMARK    3  A    between atoms: O_4  and  C_18 
REMARK    4  A    between atoms: O_5  and  C_19 
REMARK    5  A    between atoms: O_6  and  C_21 
REMARK    6  A    between atoms: C_8  and  C_12 
ROOT
ATOM      1  O   UNL d   1       4.529   4.668  31.792  0.00  0.00    -0.338 OA
ATOM      2  C   UNL d   1       4.427   3.959  33.369  0.00  0.00     0.156 A 
ATOM      3  C   UNL d   1       4.907   4.070  32.500  0.00  0.00     0.191 A 
ATOM      4  C   UNL d   1       3.568   4.445  33.532  0.00  0.00     0.079 A 
ATOM      5  C   UNL d   1       3.190   5.042  32.825  0.00  0.00     0.011 A 
ATOM      6  C   UNL d   1       3.671   5.154  31.955  0.00  0.00     0.081 A 
ATOM      7  C   UNL d   1       2.295   5.542  33.008  0.00  0.00     0.077 A 
ATOM      8  C   UNL d   1       3.289   5.772  31.208  0.00  0.00     0.074 A 
ATOM      9  C   UNL d   1       1.895   6.166  32.276  0.00  0.00     0.073 A 
ATOM     10  C   UNL d   1       2.395   6.282  31.370  0.00  0.00     0.071 A 
ENDROOT
BRANCH   3  11
ATOM     11  C   UNL d   1       5.766   3.585  32.337  0.00  0.00    -0.024 A 
ATOM     12  C   UNL d   1       5.826   2.907  31.604  0.00  0.00     0.049 A 
ATOM     13  C   UNL d   1       6.685   2.421  31.442  0.00  0.00     0.099 A 
ATOM     14  C   UNL d   1       7.484   2.613  32.012  0.00  0.00     0.098 A 
ATOM     15  C   UNL d   1       7.423   3.290  32.745  0.00  0.00     0.040 A 
ATOM     16  C   UNL d   1       6.565   3.776  32.908  0.00  0.00     0.013 A 
BRANCH  13  17
ATOM     17  O   UNL d   1       6.745   1.744  30.708  0.00  0.00    -0.358 OA
ATOM     18  H   UNL d   1       6.340   1.275  30.685  0.00  0.00     0.217 HD
ENDBRANCH  13  17
BRANCH  14  19
ATOM     19  O   UNL d   1       8.342   2.127  31.850  0.00  0.00    -0.358 OA
ATOM     20  H   UNL d   1       8.803   2.165  32.263  0.00  0.00     0.217 HD
ENDBRANCH  14  19
ENDBRANCH   3  11
BRANCH   2  21
ATOM     21  O   UNL d   1       4.805   3.362  34.077  0.00  0.00    -0.392 OA
ATOM     22  H   UNL d   1       4.531   2.821  34.204  0.00  0.00     0.210 HD
ENDBRANCH   2  21
BRANCH   7  23
ATOM     23  O   UNL d   1       1.823   5.423  33.881  0.00  0.00    -0.360 OA
ATOM     24  H   UNL d   1       1.649   4.857  34.065  0.00  0.00     0.217 HD
ENDBRANCH   7  23
BRANCH  10  25
ATOM     25  O   UNL d   1       2.020   6.878  30.661  0.00  0.00    -0.361 OA
ATOM     26  H   UNL d   1       2.370   7.327  30.416  0.00  0.00     0.217 HD
ENDBRANCH  10  25
TORSDOF 6
ENDMDL
