MODEL 1
REMARK VINA RESULT:    -7.510      0.000      0.000
REMARK INTER + INTRA:          -7.956
REMARK INTER:                  -9.268
REMARK INTRA:                   1.312
REMARK UNBOUND:                 1.310
REMARK  6 active torsions:
REMARK  status: ('A' for Active; 'I' for Inactive)
REMARK    1  A    between atoms: C_22  and  O_1 
REMARK    2  A    between atoms: C_24  and  O_2 
REMARK    3  A    between atoms: O_3  and  C_30 
REMARK    4  A    between atoms: O_4  and  C_33 
REMARK    5  A    between atoms: C_14  and  C_30 
REMARK    6  A    between atoms: C_19  and  C_33 
ROOT
ATOM      1  C   UNL d   1      28.977  30.875  38.510  0.00  0.00    -0.028 A 
ATOM      2  C   UNL d   1      29.468  31.712  38.752  0.00  0.00     0.007 A 
ATOM      3  C   UNL d   1      30.509  31.734  38.772  0.00  0.00    -0.033 A 
ATOM      4  C   UNL d   1      27.977  30.868  38.495  0.00  0.00    -0.013 A 
ATOM      5  C   UNL d   1      31.046  30.874  38.537  0.00  0.00     0.007 A 
ATOM      6  C   UNL d   1      29.493  30.003  38.272  0.00  0.00     0.011 A 
ATOM      7  C   UNL d   1      27.468  31.698  38.723  0.00  0.00    -0.069 A 
ATOM      8  C   UNL d   1      30.535  30.002  38.285  0.00  0.00     0.007 A 
ATOM      9  C   UNL d   1      32.131  30.874  38.551  0.00  0.00     0.010 A 
ATOM     10  C   UNL d   1      26.426  31.707  38.712  0.00  0.00     0.038 A 
ATOM     11  C   UNL d   1      28.958  32.542  38.980  0.00  0.00     0.033 A 
ATOM     12  C   UNL d   1      31.019  32.654  39.038  0.00  0.00     0.044 A 
ATOM     13  C   UNL d   1      27.480  29.988  38.241  0.00  0.00     0.016 A 
ATOM     14  C   UNL d   1      25.908  30.839  38.460  0.00  0.00     0.053 A 
ATOM     15  C   UNL d   1      28.814  29.926  38.241  0.00  0.00     0.016 C 
ATOM     16  C   UNL d   1      26.439  29.974  38.224  0.00  0.00     0.022 A 
ATOM     17  C   UNL d   1      32.663  31.781  38.813  0.00  0.00     0.157 A 
ATOM     18  C   UNL d   1      27.959  32.535  38.965  0.00  0.00    -0.022 A 
ATOM     19  C   UNL d   1      32.104  32.678  39.059  0.00  0.00     0.148 A 
ATOM     20  C   UNL d   1      29.993  32.561  38.998  0.00  0.00     0.016 C 
ATOM     21  C   UNL d   1      28.161  29.921  38.231  0.00  0.00     0.021 C 
ATOM     22  C   UNL d   1      25.896  32.619  38.961  0.00  0.00    -0.005 A 
ATOM     23  C   UNL d   1      24.823  30.823  38.442  0.00  0.00     0.021 A 
ATOM     24  C   UNL d   1      24.811  32.628  38.950  0.00  0.00    -0.014 A 
ATOM     25  C   UNL d   1      32.137  29.911  38.280  0.00  0.00     0.020 C 
ATOM     26  C   UNL d   1      24.271  31.724  38.688  0.00  0.00     0.006 A 
ATOM     27  C   UNL d   1      26.403  33.447  39.201  0.00  0.00     0.011 C 
ATOM     28  C   UNL d   1      24.312  33.464  39.179  0.00  0.00     0.010 C 
ENDROOT
BRANCH   9  29
ATOM     29  C   UNL d   1      33.000  30.395  38.427  0.00  0.00     0.176 C 
BRANCH  29  30
ATOM     30  O   UNL d   1      33.051  29.406  38.567  0.00  0.00    -0.400 OA
ATOM     31  H   UNL d   1      32.971  29.021  38.088  0.00  0.00     0.209 HD
ENDBRANCH  29  30
ENDBRANCH   9  29
BRANCH  17  32
ATOM     32  O   UNL d   1      33.663  31.792  38.829  0.00  0.00    -0.392 OA
ATOM     33  H   UNL d   1      33.982  31.284  38.672  0.00  0.00     0.210 HD
ENDBRANCH  17  32
BRANCH  19  34
ATOM     34  O   UNL d   1      32.585  33.520  39.302  0.00  0.00    -0.393 OA
ATOM     35  H   UNL d   1      33.201  33.553  39.246  0.00  0.00     0.210 HD
ENDBRANCH  19  34
BRANCH  14  36
ATOM     36  C   UNL d   1      25.410  30.006  38.219  0.00  0.00     0.149 C 
ATOM     37  O   UNL d   1      25.172  29.825  37.265  0.00  0.00    -0.649 OA
BRANCH  36  38
ATOM     38  O   UNL d   1      25.152  29.354  38.931  0.00  0.00    -0.776 OA
ATOM     39  H   UNL d   1      24.888  28.814  38.777  0.00  0.00     0.167 HD
ENDBRANCH  36  38
ENDBRANCH  14  36
TORSDOF 6
ENDMDL
MODEL 2
REMARK VINA RESULT:    -7.128      1.437      2.483
REMARK INTER + INTRA:          -7.485
REMARK INTER:                  -8.795
REMARK INTRA:                   1.310
REMARK UNBOUND:                 1.310
REMARK  6 active torsions:
REMARK  status: ('A' for Active; 'I' for Inactive)
REMARK    1  A    between atoms: C_22  and  O_1 
REMARK    2  A    between atoms: C_24  and  O_2 
REMARK    3  A    between atoms: O_3  and  C_30 
REMARK    4  A    between atoms: O_4  and  C_33 
REMARK    5  A    between atoms: C_14  and  C_30 
REMARK    6  A    between atoms: C_19  and  C_33 
ROOT
ATOM      1  C   UNL d   1      31.327  30.883  38.637  0.00  0.00    -0.028 A 
ATOM      2  C   UNL d   1      31.932  31.577  39.027  0.00  0.00     0.007 A 
ATOM      3  C   UNL d   1      32.962  31.427  39.069  0.00  0.00    -0.033 A 
ATOM      4  C   UNL d   1      30.340  31.041  38.603  0.00  0.00    -0.013 A 
ATOM      5  C   UNL d   1      33.367  30.541  38.700  0.00  0.00     0.007 A 
ATOM      6  C   UNL d   1      31.710  29.990  38.262  0.00  0.00     0.011 A 
ATOM      7  C   UNL d   1      29.958  31.894  38.959  0.00  0.00    -0.069 A 
ATOM      8  C   UNL d   1      32.737  29.818  38.294  0.00  0.00     0.007 A 
ATOM      9  C   UNL d   1      34.437  30.362  38.733  0.00  0.00     0.010 A 
ATOM     10  C   UNL d   1      28.932  32.074  38.931  0.00  0.00     0.038 A 
ATOM     11  C   UNL d   1      31.550  32.430  39.383  0.00  0.00     0.033 A 
ATOM     12  C   UNL d   1      33.598  32.195  39.496  0.00  0.00     0.044 A 
ATOM     13  C   UNL d   1      29.723  30.308  38.194  0.00  0.00     0.016 A 
ATOM     14  C   UNL d   1      28.296  31.355  38.526  0.00  0.00     0.053 A 
ATOM     15  C   UNL d   1      31.029  30.031  38.207  0.00  0.00     0.016 C 
ATOM     16  C   UNL d   1      28.694  30.466  38.155  0.00  0.00     0.022 A 
ATOM     17  C   UNL d   1      35.093  31.115  39.156  0.00  0.00     0.157 A 
ATOM     18  C   UNL d   1      30.563  32.589  39.349  0.00  0.00    -0.022 A 
ATOM     19  C   UNL d   1      34.671  32.038  39.540  0.00  0.00     0.148 A 
ATOM     20  C   UNL d   1      32.572  32.277  39.423  0.00  0.00     0.016 C 
ATOM     21  C   UNL d   1      30.385  30.134  38.185  0.00  0.00     0.021 C 
ATOM     22  C   UNL d   1      28.541  33.006  39.323  0.00  0.00    -0.005 A 
ATOM     23  C   UNL d   1      27.224  31.519  38.486  0.00  0.00     0.021 A 
ATOM     24  C   UNL d   1      27.473  33.193  39.293  0.00  0.00    -0.014 A 
ATOM     25  C   UNL d   1      34.304  29.469  38.302  0.00  0.00     0.020 C 
ATOM     26  C   UNL d   1      26.810  32.444  38.872  0.00  0.00     0.006 A 
ATOM     27  C   UNL d   1      29.161  33.690  39.709  0.00  0.00     0.011 C 
ATOM     28  C   UNL d   1      27.102  34.049  39.652  0.00  0.00     0.010 C 
ENDROOT
BRANCH   9  29
ATOM     29  C   UNL d   1      35.224  29.775  38.545  0.00  0.00     0.176 C 
BRANCH  29  30
ATOM     30  O   UNL d   1      35.097  28.791  38.422  0.00  0.00    -0.400 OA
ATOM     31  H   UNL d   1      35.113  28.413  38.913  0.00  0.00     0.209 HD
ENDBRANCH  29  30
ENDBRANCH   9  29
BRANCH  17  32
ATOM     32  O   UNL d   1      36.080  30.961  39.191  0.00  0.00    -0.392 OA
ATOM     33  H   UNL d   1      36.465  31.436  39.292  0.00  0.00     0.210 HD
ENDBRANCH  17  32
BRANCH  19  34
ATOM     34  O   UNL d   1      35.266  32.739  39.932  0.00  0.00    -0.393 OA
ATOM     35  H   UNL d   1      35.272  33.311  39.692  0.00  0.00     0.210 HD
ENDBRANCH  19  34
BRANCH  14  36
ATOM     36  C   UNL d   1      27.685  30.665  38.138  0.00  0.00     0.149 C 
ATOM     37  O   UNL d   1      27.499  30.659  37.156  0.00  0.00    -0.649 OA
BRANCH  36  38
ATOM     38  O   UNL d   1      27.261  29.982  38.731  0.00  0.00    -0.776 OA
ATOM     39  H   UNL d   1      26.783  29.646  38.524  0.00  0.00     0.167 HD
ENDBRANCH  36  38
ENDBRANCH  14  36
TORSDOF 6
ENDMDL
MODEL 3
REMARK VINA RESULT:    -7.066      6.842      9.989
REMARK INTER + INTRA:          -7.409
REMARK INTER:                  -8.721
REMARK INTRA:                   1.312
REMARK UNBOUND:                 1.310
REMARK  6 active torsions:
REMARK  status: ('A' for Active; 'I' for Inactive)
REMARK    1  A    between atoms: C_22  and  O_1 
REMARK    2  A    between atoms: C_24  and  O_2 
REMARK    3  A    between atoms: O_3  and  C_30 
REMARK    4  A    between atoms: O_4  and  C_33 
REMARK    5  A    between atoms: C_14  and  C_30 
REMARK    6  A    between atoms: C_19  and  C_33 
ROOT
ATOM      1  C   UNL d   1      34.620  24.271  37.677  0.00  0.00    -0.028 A 
ATOM      2  C   UNL d   1      33.915  24.973  37.575  0.00  0.00     0.007 A 
ATOM      3  C   UNL d   1      34.029  25.912  38.011  0.00  0.00    -0.033 A 
ATOM      4  C   UNL d   1      34.497  23.374  37.253  0.00  0.00    -0.013 A 
ATOM      5  C   UNL d   1      34.887  26.123  38.560  0.00  0.00     0.007 A 
ATOM      6  C   UNL d   1      35.487  24.460  38.222  0.00  0.00     0.011 A 
ATOM      7  C   UNL d   1      33.669  23.178  36.727  0.00  0.00    -0.069 A 
ATOM      8  C   UNL d   1      35.622  25.392  38.666  0.00  0.00     0.007 A 
ATOM      9  C   UNL d   1      35.028  27.095  39.023  0.00  0.00     0.010 A 
ATOM     10  C   UNL d   1      33.527  22.248  36.279  0.00  0.00     0.038 A 
ATOM     11  C   UNL d   1      33.087  24.777  37.049  0.00  0.00     0.033 A 
ATOM     12  C   UNL d   1      33.250  26.658  37.887  0.00  0.00     0.044 A 
ATOM     13  C   UNL d   1      35.241  22.653  37.368  0.00  0.00     0.016 A 
ATOM     14  C   UNL d   1      34.257  21.512  36.381  0.00  0.00     0.053 A 
ATOM     15  C   UNL d   1      35.470  23.827  37.960  0.00  0.00     0.016 C 
ATOM     16  C   UNL d   1      35.120  21.716  36.929  0.00  0.00     0.022 A 
ATOM     17  C   UNL d   1      34.264  27.856  38.913  0.00  0.00     0.157 A 
ATOM     18  C   UNL d   1      32.964  23.880  36.625  0.00  0.00    -0.022 A 
ATOM     19  C   UNL d   1      33.368  27.636  38.341  0.00  0.00     0.148 A 
ATOM     20  C   UNL d   1      33.204  25.709  37.483  0.00  0.00     0.016 C 
ATOM     21  C   UNL d   1      35.390  23.242  37.684  0.00  0.00     0.021 C 
ATOM     22  C   UNL d   1      32.622  22.060  35.714  0.00  0.00    -0.005 A 
ATOM     23  C   UNL d   1      34.132  20.536  35.924  0.00  0.00     0.021 A 
ATOM     24  C   UNL d   1      32.474  21.091  35.248  0.00  0.00    -0.014 A 
ATOM     25  C   UNL d   1      35.913  26.798  39.384  0.00  0.00     0.020 C 
ATOM     26  C   UNL d   1      33.234  20.324  35.353  0.00  0.00     0.006 A 
ATOM     27  C   UNL d   1      31.926  22.774  35.622  0.00  0.00     0.011 C 
ATOM     28  C   UNL d   1      31.642  20.907  34.724  0.00  0.00     0.010 C 
ENDROOT
BRANCH   9  29
ATOM     29  C   UNL d   1      35.580  27.722  39.572  0.00  0.00     0.176 C 
BRANCH  29  30
ATOM     30  O   UNL d   1      36.335  27.372  40.125  0.00  0.00    -0.400 OA
ATOM     31  H   UNL d   1      36.847  27.157  39.849  0.00  0.00     0.209 HD
ENDBRANCH  29  30
ENDBRANCH   9  29
BRANCH  17  32
ATOM     32  O   UNL d   1      34.382  28.754  39.335  0.00  0.00    -0.392 OA
ATOM     33  H   UNL d   1      34.400  28.807  39.953  0.00  0.00     0.210 HD
ENDBRANCH  17  32
BRANCH  19  34
ATOM     34  O   UNL d   1      32.657  28.330  38.232  0.00  0.00    -0.393 OA
ATOM     35  H   UNL d   1      32.714  28.880  38.514  0.00  0.00     0.210 HD
ENDBRANCH  19  34
BRANCH  14  36
ATOM     36  C   UNL d   1      34.958  20.806  36.479  0.00  0.00     0.149 C 
ATOM     37  O   UNL d   1      35.714  20.759  35.826  0.00  0.00    -0.649 OA
BRANCH  36  38
ATOM     38  O   UNL d   1      34.902  20.146  37.228  0.00  0.00    -0.776 OA
ATOM     39  H   UNL d   1      34.487  19.686  37.206  0.00  0.00     0.167 HD
ENDBRANCH  36  38
ENDBRANCH  14  36
TORSDOF 6
ENDMDL
MODEL 4
REMARK VINA RESULT:    -6.978     12.444     16.037
REMARK INTER + INTRA:          -7.300
REMARK INTER:                  -8.610
REMARK INTRA:                   1.310
REMARK UNBOUND:                 1.310
REMARK  6 active torsions:
REMARK  status: ('A' for Active; 'I' for Inactive)
REMARK    1  A    between atoms: C_22  and  O_1 
REMARK    2  A    between atoms: C_24  and  O_2 
REMARK    3  A    between atoms: O_3  and  C_30 
REMARK    4  A    between atoms: O_4  and  C_33 
REMARK    5  A    between atoms: C_14  and  C_30 
REMARK    6  A    between atoms: C_19  and  C_33 
ROOT
ATOM      1  C   UNL d   1      35.776  19.020  36.017  0.00  0.00    -0.028 A 
ATOM      2  C   UNL d   1      35.150  18.437  36.535  0.00  0.00     0.007 A 
ATOM      3  C   UNL d   1      34.148  18.699  36.651  0.00  0.00    -0.033 A 
ATOM      4  C   UNL d   1      36.735  18.756  35.914  0.00  0.00    -0.013 A 
ATOM      5  C   UNL d   1      33.794  19.579  36.223  0.00  0.00     0.007 A 
ATOM      6  C   UNL d   1      35.444  19.905  35.580  0.00  0.00     0.011 A 
ATOM      7  C   UNL d   1      37.068  17.909  36.328  0.00  0.00    -0.069 A 
ATOM      8  C   UNL d   1      34.446  20.187  35.684  0.00  0.00     0.007 A 
ATOM      9  C   UNL d   1      32.755  19.872  36.331  0.00  0.00     0.010 A 
ATOM     10  C   UNL d   1      38.064  17.620  36.230  0.00  0.00     0.038 A 
ATOM     11  C   UNL d   1      35.482  17.590  36.949  0.00  0.00     0.033 A 
ATOM     12  C   UNL d   1      33.487  18.050  37.217  0.00  0.00     0.044 A 
ATOM     13  C   UNL d   1      37.375  19.374  35.372  0.00  0.00     0.016 A 
ATOM     14  C   UNL d   1      38.722  18.223  35.692  0.00  0.00     0.053 A 
ATOM     15  C   UNL d   1      36.109  19.787  35.470  0.00  0.00     0.016 C 
ATOM     16  C   UNL d   1      38.375  19.106  35.260  0.00  0.00     0.022 A 
ATOM     17  C   UNL d   1      32.076  19.240  36.892  0.00  0.00     0.157 A 
ATOM     18  C   UNL d   1      36.441  17.326  36.846  0.00  0.00    -0.022 A 
ATOM     19  C   UNL d   1      32.444  18.323  37.338  0.00  0.00     0.148 A 
ATOM     20  C   UNL d   1      34.488  17.853  37.063  0.00  0.00     0.016 C 
ATOM     21  C   UNL d   1      36.735  19.615  35.402  0.00  0.00     0.021 C 
ATOM     22  C   UNL d   1      38.402  16.698  36.688  0.00  0.00    -0.005 A 
ATOM     23  C   UNL d   1      39.764  17.944  35.575  0.00  0.00     0.021 A 
ATOM     24  C   UNL d   1      39.439  16.397  36.585  0.00  0.00    -0.014 A 
ATOM     25  C   UNL d   1      32.928  20.697  35.792  0.00  0.00     0.020 C 
ATOM     26  C   UNL d   1      40.125  17.025  36.024  0.00  0.00     0.006 A 
ATOM     27  C   UNL d   1      37.761  16.126  37.202  0.00  0.00     0.011 C 
ATOM     28  C   UNL d   1      39.761  15.548  37.003  0.00  0.00     0.010 C 
ENDROOT
BRANCH   9  29
ATOM     29  C   UNL d   1      32.012  20.516  36.149  0.00  0.00     0.176 C 
BRANCH  29  30
ATOM     30  O   UNL d   1      32.213  21.485  36.002  0.00  0.00    -0.400 OA
ATOM     31  H   UNL d   1      32.597  21.783  36.387  0.00  0.00     0.209 HD
ENDBRANCH  29  30
ENDBRANCH   9  29
BRANCH  17  32
ATOM     32  O   UNL d   1      31.116  19.501  36.997  0.00  0.00    -0.392 OA
ATOM     33  H   UNL d   1      30.745  19.173  37.371  0.00  0.00     0.210 HD
ENDBRANCH  17  32
BRANCH  19  34
ATOM     34  O   UNL d   1      31.827  17.732  37.858  0.00  0.00    -0.393 OA
ATOM     35  H   UNL d   1      31.531  17.267  37.574  0.00  0.00     0.210 HD
ENDBRANCH  19  34
BRANCH  14  36
ATOM     36  C   UNL d   1      39.354  18.801  35.176  0.00  0.00     0.149 C 
ATOM     37  O   UNL d   1      39.464  18.665  34.191  0.00  0.00    -0.649 OA
BRANCH  36  38
ATOM     38  O   UNL d   1      39.875  19.514  35.643  0.00  0.00    -0.776 OA
ATOM     39  H   UNL d   1      40.400  19.370  35.941  0.00  0.00     0.167 HD
ENDBRANCH  36  38
ENDBRANCH  14  36
TORSDOF 6
ENDMDL
MODEL 5
REMARK VINA RESULT:    -6.966      5.094      8.929
REMARK INTER + INTRA:          -7.285
REMARK INTER:                  -8.592
REMARK INTRA:                   1.308
REMARK UNBOUND:                 1.310
REMARK  6 active torsions:
REMARK  status: ('A' for Active; 'I' for Inactive)
REMARK    1  A    between atoms: C_22  and  O_1 
REMARK    2  A    between atoms: C_24  and  O_2 
REMARK    3  A    between atoms: O_3  and  C_30 
REMARK    4  A    between atoms: O_4  and  C_33 
REMARK    5  A    between atoms: C_14  and  C_30 
REMARK    6  A    between atoms: C_19  and  C_33 
ROOT
ATOM      1  C   UNL d   1      34.442  26.607  38.357  0.00  0.00    -0.028 A 
ATOM      2  C   UNL d   1      33.665  27.005  37.869  0.00  0.00     0.007 A 
ATOM      3  C   UNL d   1      33.409  28.006  37.998  0.00  0.00    -0.033 A 
ATOM      4  C   UNL d   1      34.676  25.644  38.223  0.00  0.00    -0.013 A 
ATOM      5  C   UNL d   1      33.968  28.600  38.644  0.00  0.00     0.007 A 
ATOM      6  C   UNL d   1      35.015  27.182  39.008  0.00  0.00     0.011 A 
ATOM      7  C   UNL d   1      34.134  25.079  37.601  0.00  0.00    -0.069 A 
ATOM      8  C   UNL d   1      34.777  28.186  39.153  0.00  0.00     0.007 A 
ATOM      9  C   UNL d   1      33.720  29.646  38.795  0.00  0.00     0.010 A 
ATOM     10  C   UNL d   1      34.366  24.075  37.450  0.00  0.00     0.038 A 
ATOM     11  C   UNL d   1      33.123  26.440  37.246  0.00  0.00     0.033 A 
ATOM     12  C   UNL d   1      32.562  28.416  37.457  0.00  0.00     0.044 A 
ATOM     13  C   UNL d   1      35.488  25.244  38.739  0.00  0.00     0.016 A 
ATOM     14  C   UNL d   1      35.174  23.653  37.956  0.00  0.00     0.053 A 
ATOM     15  C   UNL d   1      35.232  26.534  38.965  0.00  0.00     0.016 C 
ATOM     16  C   UNL d   1      35.738  24.242  38.604  0.00  0.00     0.022 A 
ATOM     17  C   UNL d   1      32.878  30.078  38.266  0.00  0.00     0.157 A 
ATOM     18  C   UNL d   1      33.358  25.478  37.112  0.00  0.00    -0.022 A 
ATOM     19  C   UNL d   1      32.295  29.459  37.592  0.00  0.00     0.148 A 
ATOM     20  C   UNL d   1      32.871  27.435  37.377  0.00  0.00     0.016 C 
ATOM     21  C   UNL d   1      35.385  25.906  38.878  0.00  0.00     0.021 C 
ATOM     22  C   UNL d   1      33.764  23.482  36.771  0.00  0.00    -0.005 A 
ATOM     23  C   UNL d   1      35.435  22.609  37.816  0.00  0.00     0.021 A 
ATOM     24  C   UNL d   1      34.006  22.436  36.614  0.00  0.00    -0.014 A 
ATOM     25  C   UNL d   1      34.482  29.738  39.436  0.00  0.00     0.020 C 
ATOM     26  C   UNL d   1      34.847  21.997  37.140  0.00  0.00     0.006 A 
ATOM     27  C   UNL d   1      32.990  23.897  36.290  0.00  0.00     0.011 C 
ATOM     28  C   UNL d   1      33.457  21.881  35.989  0.00  0.00     0.010 C 
ENDROOT
BRANCH   9  29
ATOM     29  C   UNL d   1      33.901  30.526  39.234  0.00  0.00     0.176 C 
BRANCH  29  30
ATOM     30  O   UNL d   1      34.724  30.650  39.787  0.00  0.00    -0.400 OA
ATOM     31  H   UNL d   1      35.150  31.069  39.619  0.00  0.00     0.209 HD
ENDBRANCH  29  30
ENDBRANCH   9  29
BRANCH  17  32
ATOM     32  O   UNL d   1      32.640  31.040  38.397  0.00  0.00    -0.392 OA
ATOM     33  H   UNL d   1      32.394  31.229  38.934  0.00  0.00     0.210 HD
ENDBRANCH  17  32
BRANCH  19  34
ATOM     34  O   UNL d   1      31.516  29.847  37.099  0.00  0.00    -0.393 OA
ATOM     35  H   UNL d   1      31.370  30.445  37.171  0.00  0.00     0.210 HD
ENDBRANCH  19  34
BRANCH  14  36
ATOM     36  C   UNL d   1      35.949  23.248  38.440  0.00  0.00     0.149 C 
ATOM     37  O   UNL d   1      36.858  23.258  38.024  0.00  0.00    -0.649 OA
BRANCH  36  38
ATOM     38  O   UNL d   1      35.815  22.834  39.340  0.00  0.00    -0.776 OA
ATOM     39  H   UNL d   1      35.376  23.051  39.719  0.00  0.00     0.167 HD
ENDBRANCH  36  38
ENDBRANCH  14  36
TORSDOF 6
ENDMDL
