MODEL 1
REMARK VINA RESULT:    -4.556      0.000      0.000
REMARK INTER + INTRA:          -2.006
REMARK INTER:                  -5.468
REMARK INTRA:                   3.462
REMARK UNBOUND:                 3.483
REMARK  6 active torsions:
REMARK  status: ('A' for Active; 'I' for Inactive)
REMARK    1  A    between atoms: O_2  and  C_7 
REMARK    2  A    between atoms: O_3  and  C_13 
REMARK    3  A    between atoms: O_4  and  C_18 
REMARK    4  A    between atoms: O_5  and  C_19 
REMARK    5  A    between atoms: O_6  and  C_21 
REMARK    6  A    between atoms: C_8  and  C_12 
ROOT
ATOM      1  O   UNL d   1      35.839  25.949  38.380  0.00  0.00    -0.338 OA
ATOM      2  C   UNL d   1      34.401  24.984  38.377  0.00  0.00     0.156 A 
ATOM      3  C   UNL d   1      34.857  25.859  38.215  0.00  0.00     0.191 A 
ATOM      4  C   UNL d   1      34.926  24.199  38.705  0.00  0.00     0.079 A 
ATOM      5  C   UNL d   1      35.909  24.289  38.870  0.00  0.00     0.011 A 
ATOM      6  C   UNL d   1      36.365  25.164  38.708  0.00  0.00     0.081 A 
ATOM      7  C   UNL d   1      36.443  23.464  39.211  0.00  0.00     0.077 A 
ATOM      8  C   UNL d   1      37.387  25.274  38.875  0.00  0.00     0.074 A 
ATOM      9  C   UNL d   1      37.467  23.550  39.386  0.00  0.00     0.073 A 
ATOM     10  C   UNL d   1      37.941  24.461  39.217  0.00  0.00     0.071 A 
ENDROOT
BRANCH   3  11
ATOM     11  C   UNL d   1      34.331  26.644  37.887  0.00  0.00    -0.024 A 
ATOM     12  C   UNL d   1      33.878  27.250  38.540  0.00  0.00     0.049 A 
ATOM     13  C   UNL d   1      33.352  28.035  38.213  0.00  0.00     0.099 A 
ATOM     14  C   UNL d   1      33.279  28.213  37.231  0.00  0.00     0.098 A 
ATOM     15  C   UNL d   1      33.732  27.607  36.578  0.00  0.00     0.040 A 
ATOM     16  C   UNL d   1      34.258  26.822  36.906  0.00  0.00     0.013 A 
BRANCH  13  17
ATOM     17  O   UNL d   1      32.899  28.641  38.866  0.00  0.00    -0.358 OA
ATOM     18  H   UNL d   1      32.710  29.204  38.687  0.00  0.00     0.217 HD
ENDBRANCH  13  17
BRANCH  14  19
ATOM     19  O   UNL d   1      32.753  28.998  36.904  0.00  0.00    -0.358 OA
ATOM     20  H   UNL d   1      32.151  29.049  37.046  0.00  0.00     0.217 HD
ENDBRANCH  14  19
ENDBRANCH   3  11
BRANCH   2  21
ATOM     21  O   UNL d   1      33.418  24.894  38.211  0.00  0.00    -0.392 OA
ATOM     22  H   UNL d   1      33.027  25.321  38.431  0.00  0.00     0.210 HD
ENDBRANCH   2  21
BRANCH   7  23
ATOM     23  O   UNL d   1      35.977  22.593  39.370  0.00  0.00    -0.360 OA
ATOM     24  H   UNL d   1      35.861  22.213  38.895  0.00  0.00     0.217 HD
ENDBRANCH   7  23
BRANCH  10  25
ATOM     25  O   UNL d   1      38.923  24.555  39.381  0.00  0.00    -0.361 OA
ATOM     26  H   UNL d   1      39.269  24.052  39.489  0.00  0.00     0.217 HD
ENDBRANCH  10  25
TORSDOF 6
ENDMDL
MODEL 2
REMARK VINA RESULT:    -4.403      8.523      9.724
REMARK INTER + INTRA:          -1.821
REMARK INTER:                  -5.282
REMARK INTRA:                   3.461
REMARK UNBOUND:                 3.483
REMARK  6 active torsions:
REMARK  status: ('A' for Active; 'I' for Inactive)
REMARK    1  A    between atoms: O_2  and  C_7 
REMARK    2  A    between atoms: O_3  and  C_13 
REMARK    3  A    between atoms: O_4  and  C_18 
REMARK    4  A    between atoms: O_5  and  C_19 
REMARK    5  A    between atoms: O_6  and  C_21 
REMARK    6  A    between atoms: C_8  and  C_12 
ROOT
ATOM      1  O   UNL d   1      28.074  20.983  35.516  0.00  0.00    -0.338 OA
ATOM      2  C   UNL d   1      27.689  21.793  34.035  0.00  0.00     0.156 A 
ATOM      3  C   UNL d   1      27.403  21.253  34.826  0.00  0.00     0.191 A 
ATOM      4  C   UNL d   1      28.646  22.064  33.933  0.00  0.00     0.079 A 
ATOM      5  C   UNL d   1      29.318  21.794  34.624  0.00  0.00     0.011 A 
ATOM      6  C   UNL d   1      29.032  21.253  35.415  0.00  0.00     0.081 A 
ATOM      7  C   UNL d   1      30.311  22.082  34.505  0.00  0.00     0.077 A 
ATOM      8  C   UNL d   1      29.719  20.964  36.142  0.00  0.00     0.074 A 
ATOM      9  C   UNL d   1      31.016  21.805  35.220  0.00  0.00     0.073 A 
ATOM     10  C   UNL d   1      30.718  21.242  36.043  0.00  0.00     0.071 A 
ENDROOT
BRANCH   3  11
ATOM     11  C   UNL d   1      26.445  20.983  34.927  0.00  0.00    -0.024 A 
ATOM     12  C   UNL d   1      25.801  21.589  35.394  0.00  0.00     0.049 A 
ATOM     13  C   UNL d   1      24.844  21.318  35.495  0.00  0.00     0.099 A 
ATOM     14  C   UNL d   1      24.531  20.442  35.130  0.00  0.00     0.098 A 
ATOM     15  C   UNL d   1      25.175  19.836  34.663  0.00  0.00     0.040 A 
ATOM     16  C   UNL d   1      26.132  20.106  34.562  0.00  0.00     0.013 A 
BRANCH  13  17
ATOM     17  O   UNL d   1      24.200  21.925  35.962  0.00  0.00    -0.358 OA
ATOM     18  H   UNL d   1      24.122  22.507  35.763  0.00  0.00     0.217 HD
ENDBRANCH  13  17
BRANCH  14  19
ATOM     19  O   UNL d   1      23.573  20.172  35.231  0.00  0.00    -0.358 OA
ATOM     20  H   UNL d   1      23.421  19.708  35.613  0.00  0.00     0.217 HD
ENDBRANCH  14  19
ENDBRANCH   3  11
BRANCH   2  21
ATOM     21  O   UNL d   1      27.017  22.063  33.345  0.00  0.00    -0.392 OA
ATOM     22  H   UNL d   1      26.651  21.636  33.085  0.00  0.00     0.210 HD
ENDBRANCH   2  21
BRANCH   7  23
ATOM     23  O   UNL d   1      30.586  22.623  33.710  0.00  0.00    -0.360 OA
ATOM     24  H   UNL d   1      31.187  22.727  33.599  0.00  0.00     0.217 HD
ENDBRANCH   7  23
BRANCH  10  25
ATOM     25  O   UNL d   1      31.387  20.970  36.735  0.00  0.00    -0.361 OA
ATOM     26  H   UNL d   1      31.980  21.142  36.679  0.00  0.00     0.217 HD
ENDBRANCH  10  25
TORSDOF 6
ENDMDL
MODEL 3
REMARK VINA RESULT:    -4.397     10.265     12.052
REMARK INTER + INTRA:          -1.814
REMARK INTER:                  -5.297
REMARK INTRA:                   3.483
REMARK UNBOUND:                 3.483
REMARK  6 active torsions:
REMARK  status: ('A' for Active; 'I' for Inactive)
REMARK    1  A    between atoms: O_2  and  C_7 
REMARK    2  A    between atoms: O_3  and  C_13 
REMARK    3  A    between atoms: O_4  and  C_18 
REMARK    4  A    between atoms: O_5  and  C_19 
REMARK    5  A    between atoms: O_6  and  C_21 
REMARK    6  A    between atoms: C_8  and  C_12 
ROOT
ATOM      1  O   UNL d   1      25.487  22.960  34.401  0.00  0.00    -0.338 OA
ATOM      2  C   UNL d   1      24.362  22.988  35.718  0.00  0.00     0.156 A 
ATOM      3  C   UNL d   1      24.885  22.476  35.036  0.00  0.00     0.191 A 
ATOM      4  C   UNL d   1      24.442  23.984  35.764  0.00  0.00     0.079 A 
ATOM      5  C   UNL d   1      25.044  24.468  35.129  0.00  0.00     0.011 A 
ATOM      6  C   UNL d   1      25.566  23.955  34.447  0.00  0.00     0.081 A 
ATOM      7  C   UNL d   1      25.116  25.505  35.188  0.00  0.00     0.077 A 
ATOM      8  C   UNL d   1      26.198  24.445  33.779  0.00  0.00     0.074 A 
ATOM      9  C   UNL d   1      25.742  26.015  34.530  0.00  0.00     0.073 A 
ATOM     10  C   UNL d   1      26.286  25.482  33.821  0.00  0.00     0.071 A 
ENDROOT
BRANCH   3  11
ATOM     11  C   UNL d   1      24.805  21.480  34.990  0.00  0.00    -0.024 A 
ATOM     12  C   UNL d   1      24.042  21.062  34.498  0.00  0.00     0.049 A 
ATOM     13  C   UNL d   1      23.963  20.066  34.452  0.00  0.00     0.099 A 
ATOM     14  C   UNL d   1      24.647  19.489  34.898  0.00  0.00     0.098 A 
ATOM     15  C   UNL d   1      25.410  19.907  35.390  0.00  0.00     0.040 A 
ATOM     16  C   UNL d   1      25.489  20.903  35.437  0.00  0.00     0.013 A 
BRANCH  13  17
ATOM     17  O   UNL d   1      23.200  19.648  33.960  0.00  0.00    -0.358 OA
ATOM     18  H   UNL d   1      23.178  19.032  33.887  0.00  0.00     0.217 HD
ENDBRANCH  13  17
BRANCH  14  19
ATOM     19  O   UNL d   1      24.567  18.493  34.852  0.00  0.00    -0.358 OA
ATOM     20  H   UNL d   1      24.682  18.149  35.355  0.00  0.00     0.217 HD
ENDBRANCH  14  19
ENDBRANCH   3  11
BRANCH   2  21
ATOM     21  O   UNL d   1      23.760  22.505  36.353  0.00  0.00    -0.392 OA
ATOM     22  H   UNL d   1      23.987  22.055  36.715  0.00  0.00     0.210 HD
ENDBRANCH   2  21
BRANCH   7  23
ATOM     23  O   UNL d   1      24.589  26.007  35.874  0.00  0.00    -0.360 OA
ATOM     24  H   UNL d   1      24.365  25.711  36.370  0.00  0.00     0.217 HD
ENDBRANCH   7  23
BRANCH  10  25
ATOM     25  O   UNL d   1      26.889  25.962  33.184  0.00  0.00    -0.361 OA
ATOM     26  H   UNL d   1      26.658  26.392  32.802  0.00  0.00     0.217 HD
ENDBRANCH  10  25
TORSDOF 6
ENDMDL
MODEL 4
REMARK VINA RESULT:    -4.392      1.060      5.157
REMARK INTER + INTRA:          -1.808
REMARK INTER:                  -5.269
REMARK INTRA:                   3.461
REMARK UNBOUND:                 3.483
REMARK  6 active torsions:
REMARK  status: ('A' for Active; 'I' for Inactive)
REMARK    1  A    between atoms: O_2  and  C_7 
REMARK    2  A    between atoms: O_3  and  C_13 
REMARK    3  A    between atoms: O_4  and  C_18 
REMARK    4  A    between atoms: O_5  and  C_19 
REMARK    5  A    between atoms: O_6  and  C_21 
REMARK    6  A    between atoms: C_8  and  C_12 
ROOT
ATOM      1  O   UNL d   1      34.315  25.957  37.402  0.00  0.00    -0.338 OA
ATOM      2  C   UNL d   1      34.782  26.620  38.933  0.00  0.00     0.156 A 
ATOM      3  C   UNL d   1      34.875  25.915  38.230  0.00  0.00     0.191 A 
ATOM      4  C   UNL d   1      34.128  27.366  38.809  0.00  0.00     0.079 A 
ATOM      5  C   UNL d   1      33.568  27.408  37.982  0.00  0.00     0.011 A 
ATOM      6  C   UNL d   1      33.662  26.703  37.278  0.00  0.00     0.081 A 
ATOM      7  C   UNL d   1      32.892  28.191  37.866  0.00  0.00     0.077 A 
ATOM      8  C   UNL d   1      33.085  26.733  36.411  0.00  0.00     0.074 A 
ATOM      9  C   UNL d   1      32.305  28.242  37.007  0.00  0.00     0.073 A 
ATOM     10  C   UNL d   1      32.402  27.508  36.275  0.00  0.00     0.071 A 
ENDROOT
BRANCH   3  11
ATOM     11  C   UNL d   1      35.529  25.168  38.354  0.00  0.00    -0.024 A 
ATOM     12  C   UNL d   1      35.244  24.325  38.810  0.00  0.00     0.049 A 
ATOM     13  C   UNL d   1      35.897  23.579  38.935  0.00  0.00     0.099 A 
ATOM     14  C   UNL d   1      36.836  23.675  38.602  0.00  0.00     0.098 A 
ATOM     15  C   UNL d   1      37.120  24.518  38.146  0.00  0.00     0.040 A 
ATOM     16  C   UNL d   1      36.467  25.265  38.022  0.00  0.00     0.013 A 
BRANCH  13  17
ATOM     17  O   UNL d   1      35.613  22.736  39.391  0.00  0.00    -0.358 OA
ATOM     18  H   UNL d   1      35.011  22.589  39.423  0.00  0.00     0.217 HD
ENDBRANCH  13  17
BRANCH  14  19
ATOM     19  O   UNL d   1      37.489  22.928  38.727  0.00  0.00    -0.358 OA
ATOM     20  H   UNL d   1      37.611  22.542  38.257  0.00  0.00     0.217 HD
ENDBRANCH  14  19
ENDBRANCH   3  11
BRANCH   2  21
ATOM     21  O   UNL d   1      35.342  26.578  39.760  0.00  0.00    -0.392 OA
ATOM     22  H   UNL d   1      35.410  27.082  40.114  0.00  0.00     0.210 HD
ENDBRANCH   2  21
BRANCH   7  23
ATOM     23  O   UNL d   1      32.807  28.891  38.576  0.00  0.00    -0.360 OA
ATOM     24  H   UNL d   1      32.459  28.783  39.077  0.00  0.00     0.217 HD
ENDBRANCH   7  23
BRANCH  10  25
ATOM     25  O   UNL d   1      31.844  27.547  35.446  0.00  0.00    -0.361 OA
ATOM     26  H   UNL d   1      31.245  27.392  35.468  0.00  0.00     0.217 HD
ENDBRANCH  10  25
TORSDOF 6
ENDMDL
MODEL 5
REMARK VINA RESULT:    -4.389      2.257      2.771
REMARK INTER + INTRA:          -1.805
REMARK INTER:                  -5.290
REMARK INTRA:                   3.486
REMARK UNBOUND:                 3.483
REMARK  6 active torsions:
REMARK  status: ('A' for Active; 'I' for Inactive)
REMARK    1  A    between atoms: O_2  and  C_7 
REMARK    2  A    between atoms: O_3  and  C_13 
REMARK    3  A    between atoms: O_4  and  C_18 
REMARK    4  A    between atoms: O_5  and  C_19 
REMARK    5  A    between atoms: O_6  and  C_21 
REMARK    6  A    between atoms: C_8  and  C_12 
ROOT
ATOM      1  O   UNL d   1      35.891  24.879  37.339  0.00  0.00    -0.338 OA
ATOM      2  C   UNL d   1      35.076  24.069  38.636  0.00  0.00     0.156 A 
ATOM      3  C   UNL d   1      35.422  24.911  38.222  0.00  0.00     0.191 A 
ATOM      4  C   UNL d   1      35.200  23.195  38.168  0.00  0.00     0.079 A 
ATOM      5  C   UNL d   1      35.669  23.162  37.285  0.00  0.00     0.011 A 
ATOM      6  C   UNL d   1      36.014  24.004  36.871  0.00  0.00     0.081 A 
ATOM      7  C   UNL d   1      35.790  22.244  36.809  0.00  0.00     0.077 A 
ATOM      8  C   UNL d   1      36.504  23.986  35.952  0.00  0.00     0.074 A 
ATOM      9  C   UNL d   1      36.277  22.202  35.889  0.00  0.00     0.073 A 
ATOM     10  C   UNL d   1      36.637  23.078  35.458  0.00  0.00     0.071 A 
ENDROOT
BRANCH   3  11
ATOM     11  C   UNL d   1      35.299  25.786  38.690  0.00  0.00    -0.024 A 
ATOM     12  C   UNL d   1      34.429  26.274  38.617  0.00  0.00     0.049 A 
ATOM     13  C   UNL d   1      34.306  27.149  39.085  0.00  0.00     0.099 A 
ATOM     14  C   UNL d   1      35.052  27.536  39.627  0.00  0.00     0.098 A 
ATOM     15  C   UNL d   1      35.922  27.048  39.700  0.00  0.00     0.040 A 
ATOM     16  C   UNL d   1      36.045  26.173  39.232  0.00  0.00     0.013 A 
BRANCH  13  17
ATOM     17  O   UNL d   1      33.436  27.637  39.012  0.00  0.00    -0.358 OA
ATOM     18  H   UNL d   1      33.400  28.159  38.679  0.00  0.00     0.217 HD
ENDBRANCH  13  17
BRANCH  14  19
ATOM     19  O   UNL d   1      34.929  28.411  40.095  0.00  0.00    -0.358 OA
ATOM     20  H   UNL d   1      35.419  28.708  40.331  0.00  0.00     0.217 HD
ENDBRANCH  14  19
ENDBRANCH   3  11
BRANCH   2  21
ATOM     21  O   UNL d   1      34.608  24.102  39.519  0.00  0.00    -0.392 OA
ATOM     22  H   UNL d   1      34.677  24.595  39.888  0.00  0.00     0.210 HD
ENDBRANCH   2  21
BRANCH   7  23
ATOM     23  O   UNL d   1      35.440  21.408  37.232  0.00  0.00    -0.360 OA
ATOM     24  H   UNL d   1      34.855  21.385  37.435  0.00  0.00     0.217 HD
ENDBRANCH   7  23
BRANCH  10  25
ATOM     25  O   UNL d   1      37.106  23.049  34.575  0.00  0.00    -0.361 OA
ATOM     26  H   UNL d   1      37.725  23.037  34.553  0.00  0.00     0.217 HD
ENDBRANCH  10  25
TORSDOF 6
ENDMDL
