MODEL 1
REMARK VINA RESULT:   -10.966      0.000      0.000
REMARK INTER + INTRA:          -6.293
REMARK INTER:                 -15.116
REMARK INTRA:                   8.823
REMARK UNBOUND:                 8.520
REMARK  9 active torsions:
REMARK  status: ('A' for Active; 'I' for Inactive)
REMARK    1  A    between atoms: O_3  and  C_17 
REMARK    2  A    between atoms: O_4  and  C_18 
REMARK    3  A    between atoms: O_5  and  C_19 
REMARK    4  A    between atoms: O_7  and  C_32 
REMARK    5  A    between atoms: O_9  and  C_36 
REMARK    6  A    between atoms: O_10  and  C_40 
REMARK    7  A    between atoms: C_11  and  C_13 
REMARK    8  A    between atoms: C_15  and  C_20 
REMARK    9  A    between atoms: C_22  and  C_29 
ROOT
ATOM      1  O   UNL d   1      -4.814   8.303   4.614  0.00  0.00    -0.308 OA
ATOM      2  O   UNL d   1      -7.152   9.167   6.404  0.00  0.00    -0.287 OA
ATOM      3  C   UNL d   1      -4.023   7.638   6.040  0.00  0.00     0.045 A 
ATOM      4  C   UNL d   1      -4.807   8.111   5.638  0.00  0.00     0.107 A 
ATOM      5  C   UNL d   1      -5.571   8.394   6.218  0.00  0.00     0.082 A 
ATOM      6  C   UNL d   1      -4.003   7.448   7.021  0.00  0.00     0.082 A 
ATOM      7  C   UNL d   1      -5.551   8.204   7.200  0.00  0.00     0.085 A 
ATOM      8  C   UNL d   1      -4.767   7.731   7.601  0.00  0.00     0.075 A 
ATOM      9  C   UNL d   1      -5.627   8.795   4.189  0.00  0.00     0.090 A 
ATOM     10  C   UNL d   1      -6.394   8.888   5.814  0.00  0.00     0.190 A 
ATOM     11  C   UNL d   1      -6.423   9.090   4.794  0.00  0.00     0.094 A 
ENDROOT
BRANCH   3  12
ATOM     12  C   UNL d   1      -3.259   7.355   5.460  0.00  0.00     0.014 A 
ATOM     13  C   UNL d   1      -2.483   7.970   5.319  0.00  0.00     0.029 A 
ATOM     14  C   UNL d   1      -1.720   7.687   4.739  0.00  0.00    -0.001 A 
ATOM     15  C   UNL d   1      -1.732   6.789   4.299  0.00  0.00     0.017 A 
ATOM     16  C   UNL d   1      -2.508   6.174   4.440  0.00  0.00     0.038 A 
ATOM     17  C   UNL d   1      -3.271   6.457   5.020  0.00  0.00     0.076 A 
BRANCH  14  18
ATOM     18  C   UNL d   1      -0.944   8.302   4.599  0.00  0.00     0.090 A 
ATOM     19  O   UNL d   1      -0.015   7.934   4.559  0.00  0.00    -0.309 OA
ATOM     20  C   UNL d   1       0.761   8.549   4.419  0.00  0.00     0.095 A 
ATOM     21  C   UNL d   1       0.608   9.532   4.318  0.00  0.00     0.081 A 
ATOM     22  C   UNL d   1       1.723   8.150   4.379  0.00  0.00     0.075 A 
ATOM     23  C   UNL d   1      -0.320   9.900   4.358  0.00  0.00     0.190 A 
ATOM     24  C   UNL d   1       1.407  10.185   4.172  0.00  0.00     0.085 A 
ATOM     25  O   UNL d   1      -0.473  10.883   4.258  0.00  0.00    -0.287 OA
ATOM     26  C   UNL d   1      -1.096   9.285   4.499  0.00  0.00     0.094 A 
ATOM     27  C   UNL d   1       2.378   9.808   4.129  0.00  0.00     0.074 A 
ATOM     28  C   UNL d   1       2.537   8.784   4.234  0.00  0.00     0.071 A 
BRANCH  24  29
ATOM     29  O   UNL d   1       1.242  11.166   4.073  0.00  0.00    -0.360 OA
ATOM     30  H   UNL d   1       1.711  11.567   4.139  0.00  0.00     0.217 HD
ENDBRANCH  24  29
BRANCH  28  31
ATOM     31  O   UNL d   1       3.464   8.412   4.194  0.00  0.00    -0.361 OA
ATOM     32  H   UNL d   1       3.874   8.643   3.790  0.00  0.00     0.217 HD
ENDBRANCH  28  31
ENDBRANCH  14  18
BRANCH  17  33
ATOM     33  O   UNL d   1      -4.047   5.842   5.160  0.00  0.00    -0.360 OA
ATOM     34  H   UNL d   1      -4.335   5.826   5.709  0.00  0.00     0.217 HD
ENDBRANCH  17  33
ENDBRANCH   3  12
BRANCH   6  35
ATOM     35  O   UNL d   1      -3.219   6.974   7.423  0.00  0.00    -0.360 OA
ATOM     36  H   UNL d   1      -3.291   6.634   7.936  0.00  0.00     0.217 HD
ENDBRANCH   6  35
BRANCH   9  37
ATOM     37  C   UNL d   1      -5.643   8.984   3.207  0.00  0.00    -0.002 A 
ATOM     38  C   UNL d   1      -4.839   9.377   2.760  0.00  0.00     0.017 A 
ATOM     39  C   UNL d   1      -4.855   9.566   1.779  0.00  0.00     0.037 A 
ATOM     40  C   UNL d   1      -5.674   9.361   1.244  0.00  0.00     0.065 A 
ATOM     41  C   UNL d   1      -6.478   8.968   1.690  0.00  0.00     0.037 A 
ATOM     42  C   UNL d   1      -6.462   8.779   2.672  0.00  0.00     0.017 A 
BRANCH  40  43
ATOM     43  O   UNL d   1      -5.691   9.550   0.261  0.00  0.00    -0.361 OA
ATOM     44  H   UNL d   1      -6.213   9.750  -0.008  0.00  0.00     0.217 HD
ENDBRANCH  40  43
ENDBRANCH   9  37
BRANCH   7  45
ATOM     45  O   UNL d   1      -6.314   8.487   7.780  0.00  0.00    -0.360 OA
ATOM     46  H   UNL d   1      -6.209   8.674   8.362  0.00  0.00     0.217 HD
ENDBRANCH   7  45
TORSDOF 9
ENDMDL
MODEL 2
REMARK VINA RESULT:   -10.825      2.506      3.865
REMARK INTER + INTRA:          -6.103
REMARK INTER:                 -15.191
REMARK INTRA:                   9.089
REMARK UNBOUND:                 8.520
REMARK  9 active torsions:
REMARK  status: ('A' for Active; 'I' for Inactive)
REMARK    1  A    between atoms: O_3  and  C_17 
REMARK    2  A    between atoms: O_4  and  C_18 
REMARK    3  A    between atoms: O_5  and  C_19 
REMARK    4  A    between atoms: O_7  and  C_32 
REMARK    5  A    between atoms: O_9  and  C_36 
REMARK    6  A    between atoms: O_10  and  C_40 
REMARK    7  A    between atoms: C_11  and  C_13 
REMARK    8  A    between atoms: C_15  and  C_20 
REMARK    9  A    between atoms: C_22  and  C_29 
ROOT
ATOM      1  O   UNL d   1      -2.237   7.192   2.518  0.00  0.00    -0.308 OA
ATOM      2  O   UNL d   1      -3.376   4.347   2.679  0.00  0.00    -0.287 OA
ATOM      3  C   UNL d   1      -2.395   7.309   4.268  0.00  0.00     0.045 A 
ATOM      4  C   UNL d   1      -2.509   6.772   3.432  0.00  0.00     0.107 A 
ATOM      5  C   UNL d   1      -2.880   5.845   3.481  0.00  0.00     0.082 A 
ATOM      6  C   UNL d   1      -2.651   6.919   5.152  0.00  0.00     0.082 A 
ATOM      7  C   UNL d   1      -3.136   5.455   4.365  0.00  0.00     0.085 A 
ATOM      8  C   UNL d   1      -3.022   5.992   5.201  0.00  0.00     0.075 A 
ATOM      9  C   UNL d   1      -2.353   6.639   1.644  0.00  0.00     0.090 A 
ATOM     10  C   UNL d   1      -3.004   5.274   2.619  0.00  0.00     0.190 A 
ATOM     11  C   UNL d   1      -2.739   5.673   1.694  0.00  0.00     0.094 A 
ENDROOT
BRANCH   3  12
ATOM     12  C   UNL d   1      -2.024   8.237   4.219  0.00  0.00     0.014 A 
ATOM     13  C   UNL d   1      -1.036   8.383   4.262  0.00  0.00     0.029 A 
ATOM     14  C   UNL d   1      -0.665   9.310   4.213  0.00  0.00    -0.001 A 
ATOM     15  C   UNL d   1      -1.282  10.092   4.122  0.00  0.00     0.017 A 
ATOM     16  C   UNL d   1      -2.271   9.946   4.080  0.00  0.00     0.038 A 
ATOM     17  C   UNL d   1      -2.641   9.018   4.128  0.00  0.00     0.076 A 
BRANCH  14  18
ATOM     18  C   UNL d   1       0.324   9.457   4.256  0.00  0.00     0.090 A 
ATOM     19  O   UNL d   1       0.688  10.381   4.372  0.00  0.00    -0.309 OA
ATOM     20  C   UNL d   1       1.676  10.527   4.414  0.00  0.00     0.095 A 
ATOM     21  C   UNL d   1       2.300   9.749   4.341  0.00  0.00     0.081 A 
ATOM     22  C   UNL d   1       2.041  11.496   4.535  0.00  0.00     0.075 A 
ATOM     23  C   UNL d   1       1.936   8.825   4.226  0.00  0.00     0.190 A 
ATOM     24  C   UNL d   1       3.332   9.886   4.384  0.00  0.00     0.085 A 
ATOM     25  O   UNL d   1       2.560   8.047   4.153  0.00  0.00    -0.287 OA
ATOM     26  C   UNL d   1       0.948   8.679   4.183  0.00  0.00     0.094 A 
ATOM     27  C   UNL d   1       3.719  10.846   4.504  0.00  0.00     0.074 A 
ATOM     28  C   UNL d   1       3.069  11.656   4.580  0.00  0.00     0.071 A 
BRANCH  24  29
ATOM     29  O   UNL d   1       3.947   9.101   4.310  0.00  0.00    -0.360 OA
ATOM     30  H   UNL d   1       3.739   8.564   4.078  0.00  0.00     0.217 HD
ENDBRANCH  24  29
BRANCH  28  31
ATOM     31  O   UNL d   1       3.430  12.582   4.696  0.00  0.00    -0.361 OA
ATOM     32  H   UNL d   1       3.327  12.891   5.224  0.00  0.00     0.217 HD
ENDBRANCH  28  31
ENDBRANCH  14  18
BRANCH  17  33
ATOM     33  O   UNL d   1      -3.630   8.872   4.086  0.00  0.00    -0.360 OA
ATOM     34  H   UNL d   1      -3.888   8.406   4.403  0.00  0.00     0.217 HD
ENDBRANCH  17  33
ENDBRANCH   3  12
BRANCH   6  35
ATOM     35  O   UNL d   1      -2.537   7.456   5.988  0.00  0.00    -0.360 OA
ATOM     36  H   UNL d   1      -2.561   8.076   5.964  0.00  0.00     0.217 HD
ENDBRANCH   6  35
BRANCH   9  37
ATOM     37  C   UNL d   1      -2.095   7.033   0.761  0.00  0.00    -0.002 A 
ATOM     38  C   UNL d   1      -2.223   8.011   0.595  0.00  0.00     0.017 A 
ATOM     39  C   UNL d   1      -1.966   8.405  -0.287  0.00  0.00     0.037 A 
ATOM     40  C   UNL d   1      -1.580   7.822  -1.002  0.00  0.00     0.065 A 
ATOM     41  C   UNL d   1      -1.451   6.845  -0.835  0.00  0.00     0.037 A 
ATOM     42  C   UNL d   1      -1.709   6.450   0.047  0.00  0.00     0.017 A 
BRANCH  40  43
ATOM     43  O   UNL d   1      -1.322   8.216  -1.884  0.00  0.00    -0.361 OA
ATOM     44  H   UNL d   1      -1.675   8.657  -2.143  0.00  0.00     0.217 HD
ENDBRANCH  40  43
ENDBRANCH   9  37
BRANCH   7  45
ATOM     45  O   UNL d   1      -3.507   4.527   4.413  0.00  0.00    -0.360 OA
ATOM     46  H   UNL d   1      -4.054   4.398   4.151  0.00  0.00     0.217 HD
ENDBRANCH   7  45
TORSDOF 9
ENDMDL
MODEL 3
REMARK VINA RESULT:   -10.721     16.050     19.618
REMARK INTER + INTRA:          -5.962
REMARK INTER:                 -14.491
REMARK INTRA:                   8.530
REMARK UNBOUND:                 8.520
REMARK  9 active torsions:
REMARK  status: ('A' for Active; 'I' for Inactive)
REMARK    1  A    between atoms: O_3  and  C_17 
REMARK    2  A    between atoms: O_4  and  C_18 
REMARK    3  A    between atoms: O_5  and  C_19 
REMARK    4  A    between atoms: O_7  and  C_32 
REMARK    5  A    between atoms: O_9  and  C_36 
REMARK    6  A    between atoms: O_10  and  C_40 
REMARK    7  A    between atoms: C_11  and  C_13 
REMARK    8  A    between atoms: C_15  and  C_20 
REMARK    9  A    between atoms: C_22  and  C_29 
ROOT
ATOM      1  O   UNL d   1      10.654  -6.742   3.469  0.00  0.00    -0.308 OA
ATOM      2  O   UNL d   1      10.544  -9.223   5.272  0.00  0.00    -0.287 OA
ATOM      3  C   UNL d   1      12.079  -6.212   4.357  0.00  0.00     0.045 A 
ATOM      4  C   UNL d   1      11.358  -6.892   4.223  0.00  0.00     0.107 A 
ATOM      5  C   UNL d   1      11.319  -7.701   4.809  0.00  0.00     0.082 A 
ATOM      6  C   UNL d   1      12.761  -6.342   5.077  0.00  0.00     0.082 A 
ATOM      7  C   UNL d   1      12.001  -7.831   5.528  0.00  0.00     0.085 A 
ATOM      8  C   UNL d   1      12.722  -7.152   5.663  0.00  0.00     0.075 A 
ATOM      9  C   UNL d   1       9.900  -7.446   3.324  0.00  0.00     0.090 A 
ATOM     10  C   UNL d   1      10.574  -8.417   4.681  0.00  0.00     0.190 A 
ATOM     11  C   UNL d   1       9.860  -8.290   3.934  0.00  0.00     0.094 A 
ENDROOT
BRANCH   3  12
ATOM     12  C   UNL d   1      12.118  -5.402   3.772  0.00  0.00     0.014 A 
ATOM     13  C   UNL d   1      11.589  -4.587   4.009  0.00  0.00     0.029 A 
ATOM     14  C   UNL d   1      11.628  -3.778   3.424  0.00  0.00    -0.001 A 
ATOM     15  C   UNL d   1      12.196  -3.783   2.601  0.00  0.00     0.017 A 
ATOM     16  C   UNL d   1      12.725  -4.597   2.363  0.00  0.00     0.038 A 
ATOM     17  C   UNL d   1      12.686  -5.407   2.949  0.00  0.00     0.076 A 
BRANCH  14  18
ATOM     18  C   UNL d   1      11.099  -2.963   3.661  0.00  0.00     0.090 A 
ATOM     19  O   UNL d   1      11.530  -2.218   4.170  0.00  0.00    -0.309 OA
ATOM     20  C   UNL d   1      11.001  -1.403   4.408  0.00  0.00     0.095 A 
ATOM     21  C   UNL d   1      10.041  -1.333   4.136  0.00  0.00     0.081 A 
ATOM     22  C   UNL d   1      11.464  -0.635   4.939  0.00  0.00     0.075 A 
ATOM     23  C   UNL d   1       9.610  -2.078   3.627  0.00  0.00     0.190 A 
ATOM     24  C   UNL d   1       9.478  -0.491   4.376  0.00  0.00     0.085 A 
ATOM     25  O   UNL d   1       8.651  -2.009   3.355  0.00  0.00    -0.287 OA
ATOM     26  C   UNL d   1      10.139  -2.893   3.390  0.00  0.00     0.094 A 
ATOM     27  C   UNL d   1       9.920   0.289   4.907  0.00  0.00     0.074 A 
ATOM     28  C   UNL d   1      10.920   0.217   5.190  0.00  0.00     0.071 A 
BRANCH  24  29
ATOM     29  O   UNL d   1       8.519  -0.432   4.100  0.00  0.00    -0.360 OA
ATOM     30  H   UNL d   1       8.210   0.102   4.164  0.00  0.00     0.217 HD
ENDBRANCH  24  29
BRANCH  28  31
ATOM     31  O   UNL d   1      11.354   0.960   5.699  0.00  0.00    -0.361 OA
ATOM     32  H   UNL d   1      11.036   1.478   5.822  0.00  0.00     0.217 HD
ENDBRANCH  28  31
ENDBRANCH  14  18
BRANCH  17  33
ATOM     33  O   UNL d   1      13.215  -6.222   2.711  0.00  0.00    -0.360 OA
ATOM     34  H   UNL d   1      13.524  -6.530   3.152  0.00  0.00     0.217 HD
ENDBRANCH  17  33
ENDBRANCH   3  12
BRANCH   6  35
ATOM     35  O   UNL d   1      13.482  -5.662   5.211  0.00  0.00    -0.360 OA
ATOM     36  H   UNL d   1      13.376  -5.067   5.074  0.00  0.00     0.217 HD
ENDBRANCH   6  35
BRANCH   9  37
ATOM     37  C   UNL d   1       9.220  -7.312   2.603  0.00  0.00    -0.002 A 
ATOM     38  C   UNL d   1       9.508  -7.274   1.645  0.00  0.00     0.017 A 
ATOM     39  C   UNL d   1       8.829  -7.140   0.924  0.00  0.00     0.037 A 
ATOM     40  C   UNL d   1       7.862  -7.045   1.160  0.00  0.00     0.065 A 
ATOM     41  C   UNL d   1       7.574  -7.083   2.117  0.00  0.00     0.037 A 
ATOM     42  C   UNL d   1       8.254  -7.217   2.838  0.00  0.00     0.017 A 
BRANCH  40  43
ATOM     43  O   UNL d   1       7.181  -6.911   0.439  0.00  0.00    -0.361 OA
ATOM     44  H   UNL d   1       6.952  -7.400   0.134  0.00  0.00     0.217 HD
ENDBRANCH  40  43
ENDBRANCH   9  37
BRANCH   7  45
ATOM     45  O   UNL d   1      11.962  -8.641   6.114  0.00  0.00    -0.360 OA
ATOM     46  H   UNL d   1      12.270  -9.154   5.954  0.00  0.00     0.217 HD
ENDBRANCH   7  45
TORSDOF 9
ENDMDL
MODEL 4
REMARK VINA RESULT:   -10.620      1.985      3.366
REMARK INTER + INTRA:          -5.826
REMARK INTER:                 -14.969
REMARK INTRA:                   9.143
REMARK UNBOUND:                 8.520
REMARK  9 active torsions:
REMARK  status: ('A' for Active; 'I' for Inactive)
REMARK    1  A    between atoms: O_3  and  C_17 
REMARK    2  A    between atoms: O_4  and  C_18 
REMARK    3  A    between atoms: O_5  and  C_19 
REMARK    4  A    between atoms: O_7  and  C_32 
REMARK    5  A    between atoms: O_9  and  C_36 
REMARK    6  A    between atoms: O_10  and  C_40 
REMARK    7  A    between atoms: C_11  and  C_13 
REMARK    8  A    between atoms: C_15  and  C_20 
REMARK    9  A    between atoms: C_22  and  C_29 
ROOT
ATOM      1  O   UNL d   1      -2.847   6.366   3.534  0.00  0.00    -0.308 OA
ATOM      2  O   UNL d   1      -3.734   3.767   4.903  0.00  0.00    -0.287 OA
ATOM      3  C   UNL d   1      -3.136   7.214   5.050  0.00  0.00     0.045 A 
ATOM      4  C   UNL d   1      -3.143   6.357   4.533  0.00  0.00     0.107 A 
ATOM      5  C   UNL d   1      -3.431   5.508   4.976  0.00  0.00     0.082 A 
ATOM      6  C   UNL d   1      -3.417   7.221   6.009  0.00  0.00     0.082 A 
ATOM      7  C   UNL d   1      -3.713   5.516   5.935  0.00  0.00     0.085 A 
ATOM      8  C   UNL d   1      -3.705   6.372   6.452  0.00  0.00     0.075 A 
ATOM      9  C   UNL d   1      -2.852   5.478   2.989  0.00  0.00     0.090 A 
ATOM     10  C   UNL d   1      -3.444   4.610   4.450  0.00  0.00     0.190 A 
ATOM     11  C   UNL d   1      -3.152   4.594   3.451  0.00  0.00     0.094 A 
ENDROOT
BRANCH   3  12
ATOM     12  C   UNL d   1      -2.847   8.063   4.607  0.00  0.00     0.014 A 
ATOM     13  C   UNL d   1      -1.895   8.361   4.671  0.00  0.00     0.029 A 
ATOM     14  C   UNL d   1      -1.607   9.210   4.228  0.00  0.00    -0.001 A 
ATOM     15  C   UNL d   1      -2.271   9.761   3.722  0.00  0.00     0.017 A 
ATOM     16  C   UNL d   1      -3.223   9.462   3.658  0.00  0.00     0.038 A 
ATOM     17  C   UNL d   1      -3.511   8.613   4.100  0.00  0.00     0.076 A 
BRANCH  14  18
ATOM     18  C   UNL d   1      -0.655   9.509   4.292  0.00  0.00     0.090 A 
ATOM     19  O   UNL d   1       0.085   8.843   4.202  0.00  0.00    -0.309 OA
ATOM     20  C   UNL d   1       1.038   9.142   4.266  0.00  0.00     0.095 A 
ATOM     21  C   UNL d   1       1.249  10.107   4.420  0.00  0.00     0.081 A 
ATOM     22  C   UNL d   1       1.798   8.436   4.171  0.00  0.00     0.075 A 
ATOM     23  C   UNL d   1       0.509  10.773   4.510  0.00  0.00     0.190 A 
ATOM     24  C   UNL d   1       2.236  10.433   4.489  0.00  0.00     0.085 A 
ATOM     25  O   UNL d   1       0.721  11.738   4.663  0.00  0.00    -0.287 OA
ATOM     26  C   UNL d   1      -0.443  10.474   4.446  0.00  0.00     0.094 A 
ATOM     27  C   UNL d   1       3.013   9.745   4.396  0.00  0.00     0.074 A 
ATOM     28  C   UNL d   1       2.793   8.740   4.236  0.00  0.00     0.071 A 
BRANCH  24  29
ATOM     29  O   UNL d   1       2.437  11.401   4.643  0.00  0.00    -0.360 OA
ATOM     30  H   UNL d   1       3.011  11.578   4.799  0.00  0.00     0.217 HD
ENDBRANCH  24  29
BRANCH  28  31
ATOM     31  O   UNL d   1       3.530   8.070   4.146  0.00  0.00    -0.361 OA
ATOM     32  H   UNL d   1       3.405   7.464   4.181  0.00  0.00     0.217 HD
ENDBRANCH  28  31
ENDBRANCH  14  18
BRANCH  17  33
ATOM     33  O   UNL d   1      -4.463   8.314   4.036  0.00  0.00    -0.360 OA
ATOM     34  H   UNL d   1      -4.844   8.577   3.624  0.00  0.00     0.217 HD
ENDBRANCH  17  33
ENDBRANCH   3  12
BRANCH   6  35
ATOM     35  O   UNL d   1      -3.410   8.077   6.526  0.00  0.00    -0.360 OA
ATOM     36  H   UNL d   1      -3.136   8.101   7.082  0.00  0.00     0.217 HD
ENDBRANCH   6  35
BRANCH   9  37
ATOM     37  C   UNL d   1      -2.570   5.476   2.030  0.00  0.00    -0.002 A 
ATOM     38  C   UNL d   1      -2.653   4.639   1.487  0.00  0.00     0.017 A 
ATOM     39  C   UNL d   1      -2.371   4.636   0.528  0.00  0.00     0.037 A 
ATOM     40  C   UNL d   1      -2.006   5.469   0.111  0.00  0.00     0.065 A 
ATOM     41  C   UNL d   1      -1.924   6.305   0.654  0.00  0.00     0.037 A 
ATOM     42  C   UNL d   1      -2.206   6.308   1.613  0.00  0.00     0.017 A 
BRANCH  40  43
ATOM     43  O   UNL d   1      -1.724   5.466  -0.848  0.00  0.00    -0.361 OA
ATOM     44  H   UNL d   1      -1.696   5.999  -1.165  0.00  0.00     0.217 HD
ENDBRANCH  40  43
ENDBRANCH   9  37
BRANCH   7  45
ATOM     45  O   UNL d   1      -4.001   4.667   6.378  0.00  0.00    -0.360 OA
ATOM     46  H   UNL d   1      -3.625   4.384   6.782  0.00  0.00     0.217 HD
ENDBRANCH   7  45
TORSDOF 9
ENDMDL
MODEL 5
REMARK VINA RESULT:   -10.558      1.910      3.936
REMARK INTER + INTRA:          -5.741
REMARK INTER:                 -14.441
REMARK INTRA:                   8.700
REMARK UNBOUND:                 8.520
REMARK  9 active torsions:
REMARK  status: ('A' for Active; 'I' for Inactive)
REMARK    1  A    between atoms: O_3  and  C_17 
REMARK    2  A    between atoms: O_4  and  C_18 
REMARK    3  A    between atoms: O_5  and  C_19 
REMARK    4  A    between atoms: O_7  and  C_32 
REMARK    5  A    between atoms: O_9  and  C_36 
REMARK    6  A    between atoms: O_10  and  C_40 
REMARK    7  A    between atoms: C_11  and  C_13 
REMARK    8  A    between atoms: C_15  and  C_20 
REMARK    9  A    between atoms: C_22  and  C_29 
ROOT
ATOM      1  O   UNL d   1      -5.866   8.561   6.607  0.00  0.00    -0.308 OA
ATOM      2  O   UNL d   1      -7.544   6.618   8.289  0.00  0.00    -0.287 OA
ATOM      3  C   UNL d   1      -5.896   7.387   5.296  0.00  0.00     0.045 A 
ATOM      4  C   UNL d   1      -6.164   7.638   6.226  0.00  0.00     0.107 A 
ATOM      5  C   UNL d   1      -6.710   7.008   6.777  0.00  0.00     0.082 A 
ATOM      6  C   UNL d   1      -6.174   6.504   4.917  0.00  0.00     0.082 A 
ATOM      7  C   UNL d   1      -6.989   6.126   6.398  0.00  0.00     0.085 A 
ATOM      8  C   UNL d   1      -6.721   5.874   5.468  0.00  0.00     0.075 A 
ATOM      9  C   UNL d   1      -6.141   8.830   7.575  0.00  0.00     0.090 A 
ATOM     10  C   UNL d   1      -6.997   7.257   7.747  0.00  0.00     0.190 A 
ATOM     11  C   UNL d   1      -6.711   8.173   8.149  0.00  0.00     0.094 A 
ENDROOT
BRANCH   3  12
ATOM     12  C   UNL d   1      -5.349   8.017   4.745  0.00  0.00     0.014 A 
ATOM     13  C   UNL d   1      -4.350   7.971   4.775  0.00  0.00     0.029 A 
ATOM     14  C   UNL d   1      -3.804   8.601   4.225  0.00  0.00    -0.001 A 
ATOM     15  C   UNL d   1      -4.255   9.278   3.644  0.00  0.00     0.017 A 
ATOM     16  C   UNL d   1      -5.254   9.325   3.614  0.00  0.00     0.038 A 
ATOM     17  C   UNL d   1      -5.801   8.695   4.165  0.00  0.00     0.076 A 
BRANCH  14  18
ATOM     18  C   UNL d   1      -2.805   8.554   4.254  0.00  0.00     0.090 A 
ATOM     19  O   UNL d   1      -2.268   9.392   4.353  0.00  0.00    -0.309 OA
ATOM     20  C   UNL d   1      -1.270   9.346   4.383  0.00  0.00     0.095 A 
ATOM     21  C   UNL d   1      -0.808   8.461   4.314  0.00  0.00     0.081 A 
ATOM     22  C   UNL d   1      -0.724  10.227   4.486  0.00  0.00     0.075 A 
ATOM     23  C   UNL d   1      -1.345   7.623   4.215  0.00  0.00     0.190 A 
ATOM     24  C   UNL d   1       0.231   8.397   4.344  0.00  0.00     0.085 A 
ATOM     25  O   UNL d   1      -0.884   6.739   4.147  0.00  0.00    -0.287 OA
ATOM     26  C   UNL d   1      -2.344   7.670   4.186  0.00  0.00     0.094 A 
ATOM     27  C   UNL d   1       0.797   9.265   4.446  0.00  0.00     0.074 A 
ATOM     28  C   UNL d   1       0.317  10.187   4.518  0.00  0.00     0.071 A 
BRANCH  24  29
ATOM     29  O   UNL d   1       0.682   7.507   4.274  0.00  0.00    -0.360 OA
ATOM     30  H   UNL d   1       0.450   7.070   3.899  0.00  0.00     0.217 HD
ENDBRANCH  24  29
BRANCH  28  31
ATOM     31  O   UNL d   1       0.850  11.027   4.617  0.00  0.00    -0.361 OA
ATOM     32  H   UNL d   1       1.455  10.996   4.753  0.00  0.00     0.217 HD
ENDBRANCH  28  31
ENDBRANCH  14  18
BRANCH  17  33
ATOM     33  O   UNL d   1      -6.799   8.741   4.135  0.00  0.00    -0.360 OA
ATOM     34  H   UNL d   1      -7.085   8.944   3.623  0.00  0.00     0.217 HD
ENDBRANCH  17  33
ENDBRANCH   3  12
BRANCH   6  35
ATOM     35  O   UNL d   1      -5.906   6.253   3.987  0.00  0.00    -0.360 OA
ATOM     36  H   UNL d   1      -5.307   6.188   3.844  0.00  0.00     0.217 HD
ENDBRANCH   6  35
BRANCH   9  37
ATOM     37  C   UNL d   1      -5.860   9.714   7.950  0.00  0.00    -0.002 A 
ATOM     38  C   UNL d   1      -4.894   9.893   8.135  0.00  0.00     0.017 A 
ATOM     39  C   UNL d   1      -4.612  10.776   8.510  0.00  0.00     0.037 A 
ATOM     40  C   UNL d   1      -5.297  11.480   8.701  0.00  0.00     0.065 A 
ATOM     41  C   UNL d   1      -6.263  11.300   8.516  0.00  0.00     0.037 A 
ATOM     42  C   UNL d   1      -6.544  10.417   8.141  0.00  0.00     0.017 A 
BRANCH  40  43
ATOM     43  O   UNL d   1      -5.016  12.363   9.076  0.00  0.00    -0.361 OA
ATOM     44  H   UNL d   1      -5.356  12.870   8.964  0.00  0.00     0.217 HD
ENDBRANCH  40  43
ENDBRANCH   9  37
BRANCH   7  45
ATOM     45  O   UNL d   1      -7.536   5.495   6.949  0.00  0.00    -0.360 OA
ATOM     46  H   UNL d   1      -8.116   5.357   6.778  0.00  0.00     0.217 HD
ENDBRANCH   7  45
TORSDOF 9
ENDMDL
