MODEL 1
REMARK VINA RESULT:    -8.248      0.000      0.000
REMARK INTER + INTRA:          -6.437
REMARK INTER:                  -9.902
REMARK INTRA:                   3.465
REMARK UNBOUND:                 3.499
REMARK  6 active torsions:
REMARK  status: ('A' for Active; 'I' for Inactive)
REMARK    1  A    between atoms: O_2  and  C_7 
REMARK    2  A    between atoms: O_3  and  C_13 
REMARK    3  A    between atoms: O_4  and  C_18 
REMARK    4  A    between atoms: O_5  and  C_19 
REMARK    5  A    between atoms: O_6  and  C_21 
REMARK    6  A    between atoms: C_8  and  C_12 
ROOT
ATOM      1  O   UNL d   1       4.048  -2.047  28.643  0.00  0.00    -0.338 OA
ATOM      2  C   UNL d   1       4.506  -3.560  27.933  0.00  0.00     0.156 A 
ATOM      3  C   UNL d   1       4.757  -2.704  28.386  0.00  0.00     0.191 A 
ATOM      4  C   UNL d   1       3.545  -3.758  27.738  0.00  0.00     0.079 A 
ATOM      5  C   UNL d   1       2.836  -3.102  27.995  0.00  0.00     0.011 A 
ATOM      6  C   UNL d   1       3.088  -2.246  28.448  0.00  0.00     0.081 A 
ATOM      7  C   UNL d   1       1.841  -3.322  27.785  0.00  0.00     0.077 A 
ATOM      8  C   UNL d   1       2.361  -1.552  28.722  0.00  0.00     0.074 A 
ATOM      9  C   UNL d   1       1.097  -2.643  28.050  0.00  0.00     0.073 A 
ATOM     10  C   UNL d   1       1.358  -1.753  28.521  0.00  0.00     0.071 A 
ENDROOT
BRANCH   3  11
ATOM     11  C   UNL d   1       5.717  -2.505  28.581  0.00  0.00    -0.024 A 
ATOM     12  C   UNL d   1       6.137  -2.845  29.423  0.00  0.00     0.049 A 
ATOM     13  C   UNL d   1       7.097  -2.646  29.618  0.00  0.00     0.099 A 
ATOM     14  C   UNL d   1       7.638  -2.107  28.972  0.00  0.00     0.098 A 
ATOM     15  C   UNL d   1       7.218  -1.768  28.130  0.00  0.00     0.040 A 
ATOM     16  C   UNL d   1       6.258  -1.967  27.935  0.00  0.00     0.013 A 
BRANCH  13  17
ATOM     17  O   UNL d   1       7.517  -2.985  30.460  0.00  0.00    -0.358 OA
ATOM     18  H   UNL d   1       7.982  -2.670  30.724  0.00  0.00     0.217 HD
ENDBRANCH  13  17
BRANCH  14  19
ATOM     19  O   UNL d   1       8.598  -1.908  29.167  0.00  0.00    -0.358 OA
ATOM     20  H   UNL d   1       8.783  -1.814  29.752  0.00  0.00     0.217 HD
ENDBRANCH  14  19
ENDBRANCH   3  11
BRANCH   2  21
ATOM     21  O   UNL d   1       5.215  -4.216  27.676  0.00  0.00    -0.392 OA
ATOM     22  H   UNL d   1       5.770  -4.197  27.951  0.00  0.00     0.210 HD
ENDBRANCH   2  21
BRANCH   7  23
ATOM     23  O   UNL d   1       1.601  -4.181  27.332  0.00  0.00    -0.360 OA
ATOM     24  H   UNL d   1       2.039  -4.513  27.046  0.00  0.00     0.217 HD
ENDBRANCH   7  23
BRANCH  10  25
ATOM     25  O   UNL d   1       0.652  -1.094  28.780  0.00  0.00    -0.361 OA
ATOM     26  H   UNL d   1       0.761  -0.683  29.230  0.00  0.00     0.217 HD
ENDBRANCH  10  25
TORSDOF 6
ENDMDL
MODEL 2
REMARK VINA RESULT:    -8.174      0.716      1.858
REMARK INTER + INTRA:          -6.348
REMARK INTER:                  -9.822
REMARK INTRA:                   3.473
REMARK UNBOUND:                 3.499
REMARK  6 active torsions:
REMARK  status: ('A' for Active; 'I' for Inactive)
REMARK    1  A    between atoms: O_2  and  C_7 
REMARK    2  A    between atoms: O_3  and  C_13 
REMARK    3  A    between atoms: O_4  and  C_18 
REMARK    4  A    between atoms: O_5  and  C_19 
REMARK    5  A    between atoms: O_6  and  C_21 
REMARK    6  A    between atoms: C_8  and  C_12 
ROOT
ATOM      1  O   UNL d   1       4.179  -2.783  28.335  0.00  0.00    -0.338 OA
ATOM      2  C   UNL d   1       4.211  -1.191  29.015  0.00  0.00     0.156 A 
ATOM      3  C   UNL d   1       4.692  -2.017  28.723  0.00  0.00     0.191 A 
ATOM      4  C   UNL d   1       3.217  -1.130  28.920  0.00  0.00     0.079 A 
ATOM      5  C   UNL d   1       2.705  -1.896  28.532  0.00  0.00     0.011 A 
ATOM      6  C   UNL d   1       3.186  -2.722  28.239  0.00  0.00     0.081 A 
ATOM      7  C   UNL d   1       1.670  -1.819  28.438  0.00  0.00     0.077 A 
ATOM      8  C   UNL d   1       2.665  -3.529  27.833  0.00  0.00     0.074 A 
ATOM      9  C   UNL d   1       1.130  -2.612  28.035  0.00  0.00     0.073 A 
ATOM     10  C   UNL d   1       1.630  -3.473  27.731  0.00  0.00     0.071 A 
ENDROOT
BRANCH   3  11
ATOM     11  C   UNL d   1       5.685  -2.078  28.818  0.00  0.00    -0.024 A 
ATOM     12  C   UNL d   1       6.084  -2.498  29.633  0.00  0.00     0.049 A 
ATOM     13  C   UNL d   1       7.078  -2.559  29.729  0.00  0.00     0.099 A 
ATOM     14  C   UNL d   1       7.672  -2.199  29.009  0.00  0.00     0.098 A 
ATOM     15  C   UNL d   1       7.273  -1.778  28.195  0.00  0.00     0.040 A 
ATOM     16  C   UNL d   1       6.280  -1.718  28.099  0.00  0.00     0.013 A 
BRANCH  13  17
ATOM     17  O   UNL d   1       7.477  -2.979  30.543  0.00  0.00    -0.358 OA
ATOM     18  H   UNL d   1       7.368  -3.576  30.669  0.00  0.00     0.217 HD
ENDBRANCH  13  17
BRANCH  14  19
ATOM     19  O   UNL d   1       8.666  -2.259  29.105  0.00  0.00    -0.358 OA
ATOM     20  H   UNL d   1       8.948  -1.988  29.585  0.00  0.00     0.217 HD
ENDBRANCH  14  19
ENDBRANCH   3  11
BRANCH   2  21
ATOM     21  O   UNL d   1       4.723  -0.425  29.403  0.00  0.00    -0.392 OA
ATOM     22  H   UNL d   1       4.841  -0.407  30.012  0.00  0.00     0.210 HD
ENDBRANCH   2  21
BRANCH   7  23
ATOM     23  O   UNL d   1       1.200  -0.987  28.734  0.00  0.00    -0.360 OA
ATOM     24  H   UNL d   1       0.613  -1.017  28.931  0.00  0.00     0.217 HD
ENDBRANCH   7  23
BRANCH  10  25
ATOM     25  O   UNL d   1       1.121  -4.240  27.342  0.00  0.00    -0.361 OA
ATOM     26  H   UNL d   1       1.393  -4.619  26.934  0.00  0.00     0.217 HD
ENDBRANCH  10  25
TORSDOF 6
ENDMDL
MODEL 3
REMARK VINA RESULT:    -8.117      1.950      3.052
REMARK INTER + INTRA:          -6.279
REMARK INTER:                  -9.755
REMARK INTRA:                   3.476
REMARK UNBOUND:                 3.499
REMARK  6 active torsions:
REMARK  status: ('A' for Active; 'I' for Inactive)
REMARK    1  A    between atoms: O_2  and  C_7 
REMARK    2  A    between atoms: O_3  and  C_13 
REMARK    3  A    between atoms: O_4  and  C_18 
REMARK    4  A    between atoms: O_5  and  C_19 
REMARK    5  A    between atoms: O_6  and  C_21 
REMARK    6  A    between atoms: C_8  and  C_12 
ROOT
ATOM      1  O   UNL d   1       4.785  -2.570  28.575  0.00  0.00    -0.338 OA
ATOM      2  C   UNL d   1       3.375  -1.701  29.081  0.00  0.00     0.156 A 
ATOM      3  C   UNL d   1       4.365  -1.841  29.115  0.00  0.00     0.191 A 
ATOM      4  C   UNL d   1       2.806  -2.290  28.507  0.00  0.00     0.079 A 
ATOM      5  C   UNL d   1       3.227  -3.019  27.967  0.00  0.00     0.011 A 
ATOM      6  C   UNL d   1       4.216  -3.159  28.001  0.00  0.00     0.081 A 
ATOM      7  C   UNL d   1       2.621  -3.625  27.374  0.00  0.00     0.077 A 
ATOM      8  C   UNL d   1       4.669  -3.914  27.444  0.00  0.00     0.074 A 
ATOM      9  C   UNL d   1       3.052  -4.386  26.809  0.00  0.00     0.073 A 
ATOM     10  C   UNL d   1       4.083  -4.532  26.844  0.00  0.00     0.071 A 
ENDROOT
BRANCH   3  11
ATOM     11  C   UNL d   1       4.934  -1.252  29.688  0.00  0.00    -0.024 A 
ATOM     12  C   UNL d   1       5.374  -0.445  29.295  0.00  0.00     0.049 A 
ATOM     13  C   UNL d   1       5.943   0.144  29.868  0.00  0.00     0.099 A 
ATOM     14  C   UNL d   1       6.072  -0.074  30.836  0.00  0.00     0.098 A 
ATOM     15  C   UNL d   1       5.631  -0.881  31.230  0.00  0.00     0.040 A 
ATOM     16  C   UNL d   1       5.062  -1.470  30.656  0.00  0.00     0.013 A 
BRANCH  13  17
ATOM     17  O   UNL d   1       6.384   0.950  29.475  0.00  0.00    -0.358 OA
ATOM     18  H   UNL d   1       6.137   1.512  29.563  0.00  0.00     0.217 HD
ENDBRANCH  13  17
BRANCH  14  19
ATOM     19  O   UNL d   1       6.641   0.515  31.410  0.00  0.00    -0.358 OA
ATOM     20  H   UNL d   1       6.978   0.269  31.868  0.00  0.00     0.217 HD
ENDBRANCH  14  19
ENDBRANCH   3  11
BRANCH   2  21
ATOM     21  O   UNL d   1       2.955  -0.972  29.621  0.00  0.00    -0.392 OA
ATOM     22  H   UNL d   1       2.991  -0.985  30.240  0.00  0.00     0.210 HD
ENDBRANCH   2  21
BRANCH   7  23
ATOM     23  O   UNL d   1       1.633  -3.476  27.348  0.00  0.00    -0.360 OA
ATOM     24  H   UNL d   1       1.407  -2.899  27.337  0.00  0.00     0.217 HD
ENDBRANCH   7  23
BRANCH  10  25
ATOM     25  O   UNL d   1       4.506  -5.260  26.305  0.00  0.00    -0.361 OA
ATOM     26  H   UNL d   1       5.086  -5.439  26.428  0.00  0.00     0.217 HD
ENDBRANCH  10  25
TORSDOF 6
ENDMDL
MODEL 4
REMARK VINA RESULT:    -7.840      1.166      5.172
REMARK INTER + INTRA:          -5.946
REMARK INTER:                  -9.416
REMARK INTRA:                   3.470
REMARK UNBOUND:                 3.499
REMARK  6 active torsions:
REMARK  status: ('A' for Active; 'I' for Inactive)
REMARK    1  A    between atoms: O_2  and  C_7 
REMARK    2  A    between atoms: O_3  and  C_13 
REMARK    3  A    between atoms: O_4  and  C_18 
REMARK    4  A    between atoms: O_5  and  C_19 
REMARK    5  A    between atoms: O_6  and  C_21 
REMARK    6  A    between atoms: C_8  and  C_12 
ROOT
ATOM      1  O   UNL d   1       5.889  -1.905  28.154  0.00  0.00    -0.338 OA
ATOM      2  C   UNL d   1       5.575  -2.836  29.580  0.00  0.00     0.156 A 
ATOM      3  C   UNL d   1       5.241  -2.345  28.775  0.00  0.00     0.191 A 
ATOM      4  C   UNL d   1       6.556  -2.887  29.763  0.00  0.00     0.079 A 
ATOM      5  C   UNL d   1       7.204  -2.447  29.142  0.00  0.00     0.011 A 
ATOM      6  C   UNL d   1       6.871  -1.956  28.337  0.00  0.00     0.081 A 
ATOM      7  C   UNL d   1       8.224  -2.508  29.346  0.00  0.00     0.077 A 
ATOM      8  C   UNL d   1       7.534  -1.492  27.680  0.00  0.00     0.074 A 
ATOM      9  C   UNL d   1       8.905  -2.052  28.703  0.00  0.00     0.073 A 
ATOM     10  C   UNL d   1       8.558  -1.541  27.865  0.00  0.00     0.071 A 
ENDROOT
BRANCH   3  11
ATOM     11  C   UNL d   1       4.259  -2.295  28.592  0.00  0.00    -0.024 A 
ATOM     12  C   UNL d   1       3.729  -1.514  28.923  0.00  0.00     0.049 A 
ATOM     13  C   UNL d   1       2.747  -1.464  28.739  0.00  0.00     0.099 A 
ATOM     14  C   UNL d   1       2.296  -2.193  28.225  0.00  0.00     0.098 A 
ATOM     15  C   UNL d   1       2.827  -2.973  27.894  0.00  0.00     0.040 A 
ATOM     16  C   UNL d   1       3.808  -3.024  28.078  0.00  0.00     0.013 A 
BRANCH  13  17
ATOM     17  O   UNL d   1       2.216  -0.683  29.070  0.00  0.00    -0.358 OA
ATOM     18  H   UNL d   1       2.424  -0.347  29.548  0.00  0.00     0.217 HD
ENDBRANCH  13  17
BRANCH  14  19
ATOM     19  O   UNL d   1       1.314  -2.142  28.042  0.00  0.00    -0.358 OA
ATOM     20  H   UNL d   1       0.916  -2.464  28.392  0.00  0.00     0.217 HD
ENDBRANCH  14  19
ENDBRANCH   3  11
BRANCH   2  21
ATOM     21  O   UNL d   1       4.927  -3.276  30.201  0.00  0.00    -0.392 OA
ATOM     22  H   UNL d   1       4.703  -3.839  30.069  0.00  0.00     0.210 HD
ENDBRANCH   2  21
BRANCH   7  23
ATOM     23  O   UNL d   1       8.546  -3.001  30.153  0.00  0.00    -0.360 OA
ATOM     24  H   UNL d   1       8.574  -3.620  30.147  0.00  0.00     0.217 HD
ENDBRANCH   7  23
BRANCH  10  25
ATOM     25  O   UNL d   1       9.203  -1.100  27.241  0.00  0.00    -0.361 OA
ATOM     26  H   UNL d   1       9.409  -0.528  27.361  0.00  0.00     0.217 HD
ENDBRANCH  10  25
TORSDOF 6
ENDMDL
MODEL 5
REMARK VINA RESULT:    -7.737      1.327      2.570
REMARK INTER + INTRA:          -5.821
REMARK INTER:                  -9.284
REMARK INTRA:                   3.463
REMARK UNBOUND:                 3.499
REMARK  6 active torsions:
REMARK  status: ('A' for Active; 'I' for Inactive)
REMARK    1  A    between atoms: O_2  and  C_7 
REMARK    2  A    between atoms: O_3  and  C_13 
REMARK    3  A    between atoms: O_4  and  C_18 
REMARK    4  A    between atoms: O_5  and  C_19 
REMARK    5  A    between atoms: O_6  and  C_21 
REMARK    6  A    between atoms: C_8  and  C_12 
ROOT
ATOM      1  O   UNL d   1       5.456  -2.556  28.160  0.00  0.00    -0.338 OA
ATOM      2  C   UNL d   1       5.540  -1.074  29.054  0.00  0.00     0.156 A 
ATOM      3  C   UNL d   1       5.997  -1.829  28.584  0.00  0.00     0.191 A 
ATOM      4  C   UNL d   1       4.541  -1.045  29.099  0.00  0.00     0.079 A 
ATOM      5  C   UNL d   1       4.000  -1.772  28.676  0.00  0.00     0.011 A 
ATOM      6  C   UNL d   1       4.458  -2.527  28.206  0.00  0.00     0.081 A 
ATOM      7  C   UNL d   1       2.961  -1.728  28.731  0.00  0.00     0.077 A 
ATOM      8  C   UNL d   1       3.908  -3.291  27.759  0.00  0.00     0.074 A 
ATOM      9  C   UNL d   1       2.391  -2.481  28.292  0.00  0.00     0.073 A 
ATOM     10  C   UNL d   1       2.867  -3.267  27.803  0.00  0.00     0.071 A 
ENDROOT
BRANCH   3  11
ATOM     11  C   UNL d   1       6.996  -1.858  28.538  0.00  0.00    -0.024 A 
ATOM     12  C   UNL d   1       7.473  -1.438  27.766  0.00  0.00     0.049 A 
ATOM     13  C   UNL d   1       8.472  -1.467  27.720  0.00  0.00     0.099 A 
ATOM     14  C   UNL d   1       8.993  -1.916  28.447  0.00  0.00     0.098 A 
ATOM     15  C   UNL d   1       8.515  -2.336  29.218  0.00  0.00     0.040 A 
ATOM     16  C   UNL d   1       7.517  -2.307  29.264  0.00  0.00     0.013 A 
BRANCH  13  17
ATOM     17  O   UNL d   1       8.949  -1.048  26.948  0.00  0.00    -0.358 OA
ATOM     18  H   UNL d   1       9.464  -1.309  26.723  0.00  0.00     0.217 HD
ENDBRANCH  13  17
BRANCH  14  19
ATOM     19  O   UNL d   1       9.991  -1.945  28.401  0.00  0.00    -0.358 OA
ATOM     20  H   UNL d   1      10.287  -2.489  28.427  0.00  0.00     0.217 HD
ENDBRANCH  14  19
ENDBRANCH   3  11
BRANCH   2  21
ATOM     21  O   UNL d   1       6.081  -0.348  29.478  0.00  0.00    -0.392 OA
ATOM     22  H   UNL d   1       6.531  -0.068  29.155  0.00  0.00     0.210 HD
ENDBRANCH   2  21
BRANCH   7  23
ATOM     23  O   UNL d   1       2.515  -0.968  29.204  0.00  0.00    -0.360 OA
ATOM     24  H   UNL d   1       2.724  -0.390  29.127  0.00  0.00     0.217 HD
ENDBRANCH   7  23
BRANCH  10  25
ATOM     25  O   UNL d   1       2.329  -3.995  27.378  0.00  0.00    -0.361 OA
ATOM     26  H   UNL d   1       2.612  -4.495  27.146  0.00  0.00     0.217 HD
ENDBRANCH  10  25
TORSDOF 6
ENDMDL
