MODEL 1
REMARK VINA RESULT:   -10.876      0.000      0.000
REMARK INTER + INTRA:         -12.113
REMARK INTER:                 -13.537
REMARK INTRA:                   1.423
REMARK UNBOUND:                 1.306
REMARK  6 active torsions:
REMARK  status: ('A' for Active; 'I' for Inactive)
REMARK    1  A    between atoms: C_22  and  O_1 
REMARK    2  A    between atoms: C_24  and  O_2 
REMARK    3  A    between atoms: O_3  and  C_30 
REMARK    4  A    between atoms: O_4  and  C_33 
REMARK    5  A    between atoms: C_14  and  C_30 
REMARK    6  A    between atoms: C_19  and  C_33 
ROOT
ATOM      1  C   UNL d   1       4.156   6.651  -0.371  0.00  0.00    -0.028 A 
ATOM      2  C   UNL d   1       4.936   7.181  -0.038  0.00  0.00     0.007 A 
ATOM      3  C   UNL d   1       5.204   7.164   0.968  0.00  0.00    -0.033 A 
ATOM      4  C   UNL d   1       3.911   6.677  -1.340  0.00  0.00    -0.013 A 
ATOM      5  C   UNL d   1       4.652   6.587   1.637  0.00  0.00     0.007 A 
ATOM      6  C   UNL d   1       3.590   6.067   0.280  0.00  0.00     0.011 A 
ATOM      7  C   UNL d   1       4.445   7.233  -1.976  0.00  0.00    -0.069 A 
ATOM      8  C   UNL d   1       3.840   6.035   1.291  0.00  0.00     0.007 A 
ATOM      9  C   UNL d   1       4.912   6.554   2.690  0.00  0.00     0.010 A 
ATOM     10  C   UNL d   1       4.202   7.270  -2.989  0.00  0.00     0.038 A 
ATOM     11  C   UNL d   1       5.470   7.737  -0.674  0.00  0.00     0.033 A 
ATOM     12  C   UNL d   1       6.054   7.748   1.306  0.00  0.00     0.044 A 
ATOM     13  C   UNL d   1       3.096   6.119  -1.671  0.00  0.00     0.016 A 
ATOM     14  C   UNL d   1       3.391   6.721  -3.342  0.00  0.00     0.053 A 
ATOM     15  C   UNL d   1       3.366   6.038  -0.366  0.00  0.00     0.016 C 
ATOM     16  C   UNL d   1       2.834   6.141  -2.679  0.00  0.00     0.022 A 
ATOM     17  C   UNL d   1       5.758   7.129   3.051  0.00  0.00     0.157 A 
ATOM     18  C   UNL d   1       5.225   7.763  -1.644  0.00  0.00    -0.022 A 
ATOM     19  C   UNL d   1       6.333   7.730   2.355  0.00  0.00     0.148 A 
ATOM     20  C   UNL d   1       5.733   7.718   0.326  0.00  0.00     0.016 C 
ATOM     21  C   UNL d   1       3.206   6.054  -0.999  0.00  0.00     0.021 C 
ATOM     22  C   UNL d   1       4.796   7.881  -3.660  0.00  0.00    -0.005 A 
ATOM     23  C   UNL d   1       3.118   6.744  -4.392  0.00  0.00     0.021 A 
ATOM     24  C   UNL d   1       4.542   7.920  -4.714  0.00  0.00    -0.014 A 
ATOM     25  C   UNL d   1       4.152   5.926   2.862  0.00  0.00     0.020 C 
ATOM     26  C   UNL d   1       3.698   7.347  -5.083  0.00  0.00     0.006 A 
ATOM     27  C   UNL d   1       5.573   8.405  -3.309  0.00  0.00     0.011 C 
ATOM     28  C   UNL d   1       5.084   8.479  -5.341  0.00  0.00     0.010 C 
ENDROOT
BRANCH   9  29
ATOM     29  C   UNL d   1       4.742   6.215   3.616  0.00  0.00     0.176 C 
BRANCH  29  30
ATOM     30  O   UNL d   1       3.836   6.315   4.026  0.00  0.00    -0.400 OA
ATOM     31  H   UNL d   1       3.459   5.824   4.067  0.00  0.00     0.209 HD
ENDBRANCH  29  30
ENDBRANCH   9  29
BRANCH  17  32
ATOM     32  O   UNL d   1       6.007   7.106   4.019  0.00  0.00    -0.392 OA
ATOM     33  H   UNL d   1       5.722   7.481   4.422  0.00  0.00     0.210 HD
ENDBRANCH  17  32
BRANCH  19  34
ATOM     34  O   UNL d   1       7.115   8.264   2.676  0.00  0.00    -0.393 OA
ATOM     35  H   UNL d   1       7.414   8.096   3.193  0.00  0.00     0.210 HD
ENDBRANCH  19  34
BRANCH  14  36
ATOM     36  C   UNL d   1       2.612   6.193  -3.682  0.00  0.00     0.149 C 
ATOM     37  O   UNL d   1       1.701   6.605  -3.704  0.00  0.00    -0.649 OA
BRANCH  36  38
ATOM     38  O   UNL d   1       2.744   5.255  -4.001  0.00  0.00    -0.776 OA
ATOM     39  H   UNL d   1       2.273   4.946  -4.258  0.00  0.00     0.167 HD
ENDBRANCH  36  38
ENDBRANCH  14  36
TORSDOF 6
ENDMDL
MODEL 2
REMARK VINA RESULT:   -10.400     15.276     17.823
REMARK INTER + INTRA:         -11.527
REMARK INTER:                 -12.849
REMARK INTRA:                   1.322
REMARK UNBOUND:                 1.306
REMARK  6 active torsions:
REMARK  status: ('A' for Active; 'I' for Inactive)
REMARK    1  A    between atoms: C_22  and  O_1 
REMARK    2  A    between atoms: C_24  and  O_2 
REMARK    3  A    between atoms: O_3  and  C_30 
REMARK    4  A    between atoms: O_4  and  C_33 
REMARK    5  A    between atoms: C_14  and  C_30 
REMARK    6  A    between atoms: C_19  and  C_33 
ROOT
ATOM      1  C   UNL d   1      -5.795   6.598  12.810  0.00  0.00    -0.028 A 
ATOM      2  C   UNL d   1      -5.466   6.575  13.754  0.00  0.00     0.007 A 
ATOM      3  C   UNL d   1      -4.503   6.891  13.993  0.00  0.00    -0.033 A 
ATOM      4  C   UNL d   1      -6.722   6.292  12.596  0.00  0.00    -0.013 A 
ATOM      5  C   UNL d   1      -3.873   7.235  13.239  0.00  0.00     0.007 A 
ATOM      6  C   UNL d   1      -5.183   6.939  12.040  0.00  0.00     0.011 A 
ATOM      7  C   UNL d   1      -7.321   5.963  13.325  0.00  0.00    -0.069 A 
ATOM      8  C   UNL d   1      -4.215   7.259  12.255  0.00  0.00     0.007 A 
ATOM      9  C   UNL d   1      -2.865   7.569  13.464  0.00  0.00     0.010 A 
ATOM     10  C   UNL d   1      -8.290   5.640  13.117  0.00  0.00     0.038 A 
ATOM     11  C   UNL d   1      -6.065   6.245  14.484  0.00  0.00     0.033 A 
ATOM     12  C   UNL d   1      -4.169   6.856  15.025  0.00  0.00     0.044 A 
ATOM     13  C   UNL d   1      -7.050   6.322  11.607  0.00  0.00     0.016 A 
ATOM     14  C   UNL d   1      -8.639   5.662  12.136  0.00  0.00     0.053 A 
ATOM     15  C   UNL d   1      -5.802   6.746  11.821  0.00  0.00     0.016 C 
ATOM     16  C   UNL d   1      -8.015   6.005  11.376  0.00  0.00     0.022 A 
ATOM     17  C   UNL d   1      -2.509   7.544  14.488  0.00  0.00     0.157 A 
ATOM     18  C   UNL d   1      -6.993   5.939  14.269  0.00  0.00    -0.022 A 
ATOM     19  C   UNL d   1      -3.165   7.185  15.274  0.00  0.00     0.148 A 
ATOM     20  C   UNL d   1      -5.108   6.560  14.718  0.00  0.00     0.016 C 
ATOM     21  C   UNL d   1      -6.407   6.546  11.681  0.00  0.00     0.021 C 
ATOM     22  C   UNL d   1      -8.921   5.287  13.925  0.00  0.00    -0.005 A 
ATOM     23  C   UNL d   1      -9.644   5.331  11.895  0.00  0.00     0.021 A 
ATOM     24  C   UNL d   1      -9.930   4.951  13.709  0.00  0.00    -0.014 A 
ATOM     25  C   UNL d   1      -2.713   7.772  12.496  0.00  0.00     0.020 C 
ATOM     26  C   UNL d   1     -10.294   4.974  12.687  0.00  0.00     0.006 A 
ATOM     27  C   UNL d   1      -8.576   5.271  14.864  0.00  0.00     0.011 C 
ATOM     28  C   UNL d   1     -10.520   4.624  14.446  0.00  0.00     0.010 C 
ENDROOT
BRANCH   9  29
ATOM     29  C   UNL d   1      -1.986   7.936  13.162  0.00  0.00     0.176 C 
BRANCH  29  30
ATOM     30  O   UNL d   1      -1.871   8.251  12.220  0.00  0.00    -0.400 OA
ATOM     31  H   UNL d   1      -1.818   7.839  11.760  0.00  0.00     0.209 HD
ENDBRANCH  29  30
ENDBRANCH   9  29
BRANCH  17  32
ATOM     32  O   UNL d   1      -1.583   7.849  14.707  0.00  0.00    -0.392 OA
ATOM     33  H   UNL d   1      -1.109   7.451  14.674  0.00  0.00     0.210 HD
ENDBRANCH  17  32
BRANCH  19  34
ATOM     34  O   UNL d   1      -2.847   7.158  16.222  0.00  0.00    -0.393 OA
ATOM     35  H   UNL d   1      -3.257   7.166  16.687  0.00  0.00     0.210 HD
ENDBRANCH  19  34
BRANCH  14  36
ATOM     36  C   UNL d   1      -8.974   5.682  11.194  0.00  0.00     0.149 C 
ATOM     37  O   UNL d   1      -9.366   6.523  10.822  0.00  0.00    -0.649 OA
BRANCH  36  38
ATOM     38  O   UNL d   1      -8.918   4.862  10.625  0.00  0.00    -0.776 OA
ATOM     39  H   UNL d   1      -9.394   4.466  10.604  0.00  0.00     0.167 HD
ENDBRANCH  36  38
ENDBRANCH  14  36
TORSDOF 6
ENDMDL
MODEL 3
REMARK VINA RESULT:   -10.295     19.796     22.237
REMARK INTER + INTRA:         -11.397
REMARK INTER:                 -12.840
REMARK INTRA:                   1.443
REMARK UNBOUND:                 1.306
REMARK  6 active torsions:
REMARK  status: ('A' for Active; 'I' for Inactive)
REMARK    1  A    between atoms: C_22  and  O_1 
REMARK    2  A    between atoms: C_24  and  O_2 
REMARK    3  A    between atoms: O_3  and  C_30 
REMARK    4  A    between atoms: O_4  and  C_33 
REMARK    5  A    between atoms: C_14  and  C_30 
REMARK    6  A    between atoms: C_19  and  C_33 
ROOT
ATOM      1  C   UNL d   1     -10.226  -5.674   7.286  0.00  0.00    -0.028 A 
ATOM      2  C   UNL d   1     -11.200  -5.867   7.169  0.00  0.00     0.007 A 
ATOM      3  C   UNL d   1     -11.681  -5.662   6.268  0.00  0.00    -0.033 A 
ATOM      4  C   UNL d   1      -9.778  -5.877   8.157  0.00  0.00    -0.013 A 
ATOM      5  C   UNL d   1     -11.141  -5.249   5.479  0.00  0.00     0.007 A 
ATOM      6  C   UNL d   1      -9.666  -5.262   6.512  0.00  0.00     0.011 A 
ATOM      7  C   UNL d   1     -10.303  -6.273   8.910  0.00  0.00    -0.069 A 
ATOM      8  C   UNL d   1     -10.126  -5.048   5.602  0.00  0.00     0.007 A 
ATOM      9  C   UNL d   1     -11.620  -5.026   4.531  0.00  0.00     0.010 A 
ATOM     10  C   UNL d   1      -9.850  -6.490   9.822  0.00  0.00     0.038 A 
ATOM     11  C   UNL d   1     -11.726  -6.263   7.922  0.00  0.00     0.033 A 
ATOM     12  C   UNL d   1     -12.739  -5.880   6.164  0.00  0.00     0.044 A 
ATOM     13  C   UNL d   1      -8.762  -5.670   8.264  0.00  0.00     0.016 A 
ATOM     14  C   UNL d   1      -8.836  -6.292   9.952  0.00  0.00     0.053 A 
ATOM     15  C   UNL d   1      -9.296  -5.375   7.076  0.00  0.00     0.016 C 
ATOM     16  C   UNL d   1      -8.288  -5.879   9.168  0.00  0.00     0.022 A 
ATOM     17  C   UNL d   1     -12.676  -5.236   4.404  0.00  0.00     0.157 A 
ATOM     18  C   UNL d   1     -11.278  -6.466   8.792  0.00  0.00    -0.022 A 
ATOM     19  C   UNL d   1     -13.240  -5.665   5.225  0.00  0.00     0.148 A 
ATOM     20  C   UNL d   1     -12.200  -6.058   7.025  0.00  0.00     0.016 C 
ATOM     21  C   UNL d   1      -9.003  -5.507   7.644  0.00  0.00     0.021 C 
ATOM     22  C   UNL d   1     -10.441  -6.919  10.624  0.00  0.00    -0.005 A 
ATOM     23  C   UNL d   1      -8.342  -6.509  10.894  0.00  0.00     0.021 A 
ATOM     24  C   UNL d   1      -9.969  -7.145  11.575  0.00  0.00    -0.014 A 
ATOM     25  C   UNL d   1     -10.752  -4.687   4.168  0.00  0.00     0.020 C 
ATOM     26  C   UNL d   1      -8.912  -6.938  11.710  0.00  0.00     0.006 A 
ATOM     27  C   UNL d   1     -11.415  -7.106  10.489  0.00  0.00     0.011 C 
ATOM     28  C   UNL d   1     -10.504  -7.541  12.321  0.00  0.00     0.010 C 
ENDROOT
BRANCH   9  29
ATOM     29  C   UNL d   1     -11.571  -4.680   3.595  0.00  0.00     0.176 C 
BRANCH  29  30
ATOM     30  O   UNL d   1     -10.934  -3.945   3.366  0.00  0.00    -0.400 OA
ATOM     31  H   UNL d   1     -10.555  -4.004   2.879  0.00  0.00     0.209 HD
ENDBRANCH  29  30
ENDBRANCH   9  29
BRANCH  17  32
ATOM     32  O   UNL d   1     -13.129  -5.034   3.535  0.00  0.00    -0.392 OA
ATOM     33  H   UNL d   1     -13.736  -5.142   3.469  0.00  0.00     0.210 HD
ENDBRANCH  17  32
BRANCH  19  34
ATOM     34  O   UNL d   1     -14.215  -5.862   5.119  0.00  0.00    -0.393 OA
ATOM     35  H   UNL d   1     -14.616  -5.686   5.557  0.00  0.00     0.210 HD
ENDBRANCH  19  34
BRANCH  14  36
ATOM     36  C   UNL d   1      -7.862  -6.101  10.077  0.00  0.00     0.149 C 
ATOM     37  O   UNL d   1      -7.202  -6.852  10.069  0.00  0.00    -0.649 OA
BRANCH  36  38
ATOM     38  O   UNL d   1      -7.549  -5.161  10.211  0.00  0.00    -0.776 OA
ATOM     39  H   UNL d   1      -7.191  -4.890   9.784  0.00  0.00     0.167 HD
ENDBRANCH  36  38
ENDBRANCH  14  36
TORSDOF 6
ENDMDL
MODEL 4
REMARK VINA RESULT:    -9.816      2.197      3.596
REMARK INTER + INTRA:         -10.806
REMARK INTER:                 -12.123
REMARK INTRA:                   1.317
REMARK UNBOUND:                 1.306
REMARK  6 active torsions:
REMARK  status: ('A' for Active; 'I' for Inactive)
REMARK    1  A    between atoms: C_22  and  O_1 
REMARK    2  A    between atoms: C_24  and  O_2 
REMARK    3  A    between atoms: O_3  and  C_30 
REMARK    4  A    between atoms: O_4  and  C_33 
REMARK    5  A    between atoms: C_14  and  C_30 
REMARK    6  A    between atoms: C_19  and  C_33 
ROOT
ATOM      1  C   UNL d   1       2.869   6.918  -2.598  0.00  0.00    -0.028 A 
ATOM      2  C   UNL d   1       3.200   7.857  -2.684  0.00  0.00     0.007 A 
ATOM      3  C   UNL d   1       3.887   8.246  -2.005  0.00  0.00    -0.033 A 
ATOM      4  C   UNL d   1       2.209   6.558  -3.258  0.00  0.00    -0.013 A 
ATOM      5  C   UNL d   1       4.235   7.648  -1.226  0.00  0.00     0.007 A 
ATOM      6  C   UNL d   1       3.203   6.302  -1.828  0.00  0.00     0.011 A 
ATOM      7  C   UNL d   1       1.880   7.138  -4.003  0.00  0.00    -0.069 A 
ATOM      8  C   UNL d   1       3.890   6.669  -1.137  0.00  0.00     0.007 A 
ATOM      9  C   UNL d   1       4.951   8.031  -0.506  0.00  0.00     0.010 A 
ATOM     10  C   UNL d   1       1.192   6.777  -4.698  0.00  0.00     0.038 A 
ATOM     11  C   UNL d   1       2.871   8.437  -3.429  0.00  0.00     0.033 A 
ATOM     12  C   UNL d   1       4.232   9.269  -2.118  0.00  0.00     0.044 A 
ATOM     13  C   UNL d   1       1.874   5.577  -3.156  0.00  0.00     0.016 A 
ATOM     14  C   UNL d   1       0.843   5.800  -4.615  0.00  0.00     0.053 A 
ATOM     15  C   UNL d   1       2.754   5.991  -2.241  0.00  0.00     0.016 C 
ATOM     16  C   UNL d   1       1.186   5.195  -3.839  0.00  0.00     0.022 A 
ATOM     17  C   UNL d   1       5.310   9.050  -0.599  0.00  0.00     0.157 A 
ATOM     18  C   UNL d   1       2.211   8.078  -4.089  0.00  0.00    -0.022 A 
ATOM     19  C   UNL d   1       4.948   9.674  -1.410  0.00  0.00     0.148 A 
ATOM     20  C   UNL d   1       3.554   8.820  -2.752  0.00  0.00     0.016 C 
ATOM     21  C   UNL d   1       2.323   5.756  -2.671  0.00  0.00     0.021 C 
ATOM     22  C   UNL d   1       0.850   7.425  -5.497  0.00  0.00    -0.005 A 
ATOM     23  C   UNL d   1       0.127   5.402  -5.327  0.00  0.00     0.021 A 
ATOM     24  C   UNL d   1       0.134   7.050  -6.221  0.00  0.00    -0.014 A 
ATOM     25  C   UNL d   1       4.947   7.152  -0.030  0.00  0.00     0.020 C 
ATOM     26  C   UNL d   1      -0.230   6.031  -6.135  0.00  0.00     0.006 A 
ATOM     27  C   UNL d   1       1.192   8.363  -5.568  0.00  0.00     0.011 C 
ATOM     28  C   UNL d   1      -0.188   7.639  -6.962  0.00  0.00     0.010 C 
ENDROOT
BRANCH   9  29
ATOM     29  C   UNL d   1       5.521   7.900   0.305  0.00  0.00     0.176 C 
BRANCH  29  30
ATOM     30  O   UNL d   1       5.219   7.287   1.035  0.00  0.00    -0.400 OA
ATOM     31  H   UNL d   1       5.204   7.487   1.621  0.00  0.00     0.209 HD
ENDBRANCH  29  30
ENDBRANCH   9  29
BRANCH  17  32
ATOM     32  O   UNL d   1       5.970   9.414   0.058  0.00  0.00    -0.392 OA
ATOM     33  H   UNL d   1       6.385   9.037   0.323  0.00  0.00     0.210 HD
ENDBRANCH  17  32
BRANCH  19  34
ATOM     34  O   UNL d   1       5.272  10.615  -1.505  0.00  0.00    -0.393 OA
ATOM     35  H   UNL d   1       4.868  11.085  -1.497  0.00  0.00     0.210 HD
ENDBRANCH  19  34
BRANCH  14  36
ATOM     36  C   UNL d   1       0.508   4.861  -4.536  0.00  0.00     0.149 C 
ATOM     37  O   UNL d   1       0.996   4.116  -4.992  0.00  0.00    -0.649 OA
BRANCH  36  38
ATOM     38  O   UNL d   1      -0.314   4.666  -4.002  0.00  0.00    -0.776 OA
ATOM     39  H   UNL d   1      -0.363   4.877  -3.421  0.00  0.00     0.167 HD
ENDBRANCH  36  38
ENDBRANCH  14  36
TORSDOF 6
ENDMDL
MODEL 5
REMARK VINA RESULT:    -9.766     15.024     17.546
REMARK INTER + INTRA:         -10.743
REMARK INTER:                 -12.078
REMARK INTRA:                   1.335
REMARK UNBOUND:                 1.306
REMARK  6 active torsions:
REMARK  status: ('A' for Active; 'I' for Inactive)
REMARK    1  A    between atoms: C_22  and  O_1 
REMARK    2  A    between atoms: C_24  and  O_2 
REMARK    3  A    between atoms: O_3  and  C_30 
REMARK    4  A    between atoms: O_4  and  C_33 
REMARK    5  A    between atoms: C_14  and  C_30 
REMARK    6  A    between atoms: C_19  and  C_33 
ROOT
ATOM      1  C   UNL d   1      -5.017   6.767  13.946  0.00  0.00    -0.028 A 
ATOM      2  C   UNL d   1      -4.513   7.133  13.163  0.00  0.00     0.007 A 
ATOM      3  C   UNL d   1      -3.560   7.535  13.281  0.00  0.00    -0.033 A 
ATOM      4  C   UNL d   1      -5.931   6.383  13.817  0.00  0.00    -0.013 A 
ATOM      5  C   UNL d   1      -3.126   7.558  14.227  0.00  0.00     0.007 A 
ATOM      6  C   UNL d   1      -4.602   6.779  14.901  0.00  0.00     0.011 A 
ATOM      7  C   UNL d   1      -6.342   6.365  12.905  0.00  0.00    -0.069 A 
ATOM      8  C   UNL d   1      -3.650   7.177  15.043  0.00  0.00     0.007 A 
ATOM      9  C   UNL d   1      -2.133   7.973  14.375  0.00  0.00     0.010 A 
ATOM     10  C   UNL d   1      -7.293   5.969  12.755  0.00  0.00     0.038 A 
ATOM     11  C   UNL d   1      -4.924   7.114  12.251  0.00  0.00     0.033 A 
ATOM     12  C   UNL d   1      -3.032   7.926  12.417  0.00  0.00     0.044 A 
ATOM     13  C   UNL d   1      -6.443   6.006  14.642  0.00  0.00     0.016 A 
ATOM     14  C   UNL d   1      -7.824   5.586  13.566  0.00  0.00     0.053 A 
ATOM     15  C   UNL d   1      -5.229   6.503  14.887  0.00  0.00     0.016 C 
ATOM     16  C   UNL d   1      -7.396   5.605  14.515  0.00  0.00     0.022 A 
ATOM     17  C   UNL d   1      -1.587   8.369  13.527  0.00  0.00     0.157 A 
ATOM     18  C   UNL d   1      -5.838   6.730  12.122  0.00  0.00    -0.022 A 
ATOM     19  C   UNL d   1      -2.039   8.346  12.541  0.00  0.00     0.148 A 
ATOM     20  C   UNL d   1      -3.977   7.514  12.373  0.00  0.00     0.016 C 
ATOM     21  C   UNL d   1      -5.825   6.253  14.803  0.00  0.00     0.021 C 
ATOM     22  C   UNL d   1      -7.718   5.960  11.757  0.00  0.00    -0.005 A 
ATOM     23  C   UNL d   1      -8.817   5.168  13.434  0.00  0.00     0.021 A 
ATOM     24  C   UNL d   1      -8.709   5.547  11.601  0.00  0.00    -0.014 A 
ATOM     25  C   UNL d   1      -2.191   7.771  15.353  0.00  0.00     0.020 C 
ATOM     26  C   UNL d   1      -9.262   5.148  12.445  0.00  0.00     0.006 A 
ATOM     27  C   UNL d   1      -7.200   6.330  10.985  0.00  0.00     0.011 C 
ATOM     28  C   UNL d   1      -9.110   5.534  10.685  0.00  0.00     0.010 C 
ENDROOT
BRANCH   9  29
ATOM     29  C   UNL d   1      -1.371   8.203  14.979  0.00  0.00     0.176 C 
BRANCH  29  30
ATOM     30  O   UNL d   1      -1.115   7.584  15.721  0.00  0.00    -0.400 OA
ATOM     31  H   UNL d   1      -0.834   7.046  15.593  0.00  0.00     0.209 HD
ENDBRANCH  29  30
ENDBRANCH   9  29
BRANCH  17  32
ATOM     32  O   UNL d   1      -0.673   8.754  13.651  0.00  0.00    -0.392 OA
ATOM     33  H   UNL d   1      -0.598   9.281  13.969  0.00  0.00     0.210 HD
ENDBRANCH  17  32
BRANCH  19  34
ATOM     34  O   UNL d   1      -1.545   8.708  11.751  0.00  0.00    -0.393 OA
ATOM     35  H   UNL d   1      -0.966   8.921  11.818  0.00  0.00     0.210 HD
ENDBRANCH  19  34
BRANCH  14  36
ATOM     36  C   UNL d   1      -8.334   5.219  14.343  0.00  0.00     0.149 C 
ATOM     37  O   UNL d   1      -8.948   5.813  14.863  0.00  0.00    -0.649 OA
BRANCH  36  38
ATOM     38  O   UNL d   1      -8.230   4.259  14.602  0.00  0.00    -0.776 OA
ATOM     39  H   UNL d   1      -8.731   3.910  14.705  0.00  0.00     0.167 HD
ENDBRANCH  36  38
ENDBRANCH  14  36
TORSDOF 6
ENDMDL
