MODEL 1
REMARK VINA RESULT:     0.000      0.000      0.000
REMARK INTER + INTRA:           1.016
REMARK INTER:                   0.000
REMARK INTRA:                   1.016
REMARK UNBOUND:                 1.016
REMARK  3 active torsions:
REMARK  status: ('A' for Active; 'I' for Inactive)
REMARK    1  A    between atoms: O_2  and  C_10 
REMARK    2  A    between atoms: O_4  and  C_13 
REMARK    3  A    between atoms: C_7  and  C_9 
ROOT
ATOM      1  O   UNL d   1      -1.379  -5.669  27.618  0.00  0.00    -0.309 OA
ATOM      2  O   UNL d   1      -0.282  -6.408  24.926  0.00  0.00    -0.287 OA
ATOM      3  C   UNL d   1      -0.097  -5.617  26.455  0.00  0.00     0.081 A 
ATOM      4  C   UNL d   1      -0.463  -5.371  27.353  0.00  0.00     0.095 A 
ATOM      5  C   UNL d   1      -1.930  -6.214  26.986  0.00  0.00     0.090 A 
ATOM      6  C   UNL d   1      -0.648  -6.162  25.823  0.00  0.00     0.190 A 
ATOM      7  C   UNL d   1       0.856  -5.313  26.166  0.00  0.00     0.085 A 
ATOM      8  C   UNL d   1      -1.564  -6.460  26.088  0.00  0.00     0.094 A 
ATOM      9  C   UNL d   1       0.099  -4.804  28.023  0.00  0.00     0.075 A 
ATOM     10  C   UNL d   1       1.055  -4.489  27.753  0.00  0.00     0.071 A 
ATOM     11  C   UNL d   1       1.436  -4.746  26.819  0.00  0.00     0.074 A 
ENDROOT
BRANCH   5  12
ATOM     12  C   UNL d   1      -2.847  -6.512  27.251  0.00  0.00    -0.002 A 
ATOM     13  C   UNL d   1      -3.639  -5.936  27.048  0.00  0.00     0.014 A 
ATOM     14  C   UNL d   1      -4.556  -6.234  27.314  0.00  0.00     0.001 A 
ATOM     15  C   UNL d   1      -4.681  -7.109  27.781  0.00  0.00     0.000 A 
ATOM     16  C   UNL d   1      -3.889  -7.685  27.984  0.00  0.00     0.001 A 
ATOM     17  C   UNL d   1      -2.972  -7.387  27.719  0.00  0.00     0.014 A 
ENDBRANCH   5  12
BRANCH   7  18
ATOM     18  O   UNL d   1       1.212  -5.565  25.266  0.00  0.00    -0.360 OA
ATOM     19  H   UNL d   1       0.821  -5.715  24.809  0.00  0.00     0.217 HD
ENDBRANCH   7  18
BRANCH  10  20
ATOM     20  O   UNL d   1       1.603  -3.945  28.389  0.00  0.00    -0.361 OA
ATOM     21  H   UNL d   1       2.191  -3.806  28.250  0.00  0.00     0.217 HD
ENDBRANCH  10  20
TORSDOF 3
ENDMDL
MODEL 2
REMARK VINA RESULT:     0.000     51.600     53.025
REMARK INTER + INTRA:           1.016
REMARK INTER:                   0.000
REMARK INTRA:                   1.016
REMARK UNBOUND:                 1.016
REMARK  3 active torsions:
REMARK  status: ('A' for Active; 'I' for Inactive)
REMARK    1  A    between atoms: O_2  and  C_10 
REMARK    2  A    between atoms: O_4  and  C_13 
REMARK    3  A    between atoms: C_7  and  C_9 
ROOT
ATOM      1  O   UNL d   1       3.758 -18.644 -23.909  0.00  0.00    -0.309 OA
ATOM      2  O   UNL d   1       5.902 -20.726 -24.176  0.00  0.00    -0.287 OA
ATOM      3  C   UNL d   1       5.288 -19.293 -23.421  0.00  0.00     0.081 A 
ATOM      4  C   UNL d   1       4.573 -18.599 -23.332  0.00  0.00     0.095 A 
ATOM      5  C   UNL d   1       3.657 -19.383 -24.575  0.00  0.00     0.090 A 
ATOM      6  C   UNL d   1       5.187 -20.032 -24.087  0.00  0.00     0.190 A 
ATOM      7  C   UNL d   1       6.142 -19.259 -22.826  0.00  0.00     0.085 A 
ATOM      8  C   UNL d   1       4.372 -20.077 -24.664  0.00  0.00     0.094 A 
ATOM      9  C   UNL d   1       4.664 -17.823 -22.642  0.00  0.00     0.075 A 
ATOM     10  C   UNL d   1       5.510 -17.770 -22.038  0.00  0.00     0.071 A 
ATOM     11  C   UNL d   1       6.254 -18.492 -22.130  0.00  0.00     0.074 A 
ENDROOT
BRANCH   5  12
ATOM     12  C   UNL d   1       2.842 -19.428 -25.152  0.00  0.00    -0.002 A 
ATOM     13  C   UNL d   1       2.831 -18.966 -26.039  0.00  0.00     0.014 A 
ATOM     14  C   UNL d   1       2.015 -19.011 -26.616  0.00  0.00     0.001 A 
ATOM     15  C   UNL d   1       1.211 -19.518 -26.307  0.00  0.00     0.000 A 
ATOM     16  C   UNL d   1       1.222 -19.980 -25.420  0.00  0.00     0.001 A 
ATOM     17  C   UNL d   1       2.037 -19.935 -24.843  0.00  0.00     0.014 A 
ENDBRANCH   5  12
BRANCH   7  18
ATOM     18  O   UNL d   1       6.850 -19.958 -22.924  0.00  0.00    -0.360 OA
ATOM     19  H   UNL d   1       6.695 -20.558 -22.930  0.00  0.00     0.217 HD
ENDBRANCH   7  18
BRANCH  10  20
ATOM     20  O   UNL d   1       5.607 -17.029 -21.373  0.00  0.00    -0.361 OA
ATOM     21  H   UNL d   1       6.165 -16.780 -21.265  0.00  0.00     0.217 HD
ENDBRANCH  10  20
TORSDOF 3
ENDMDL
MODEL 3
REMARK VINA RESULT:     0.000     40.207     41.821
REMARK INTER + INTRA:           1.016
REMARK INTER:                   0.000
REMARK INTRA:                   1.016
REMARK UNBOUND:                 1.016
REMARK  3 active torsions:
REMARK  status: ('A' for Active; 'I' for Inactive)
REMARK    1  A    between atoms: O_2  and  C_10 
REMARK    2  A    between atoms: O_4  and  C_13 
REMARK    3  A    between atoms: C_7  and  C_9 
ROOT
ATOM      1  O   UNL d   1      14.740   6.074  -8.865  0.00  0.00    -0.309 OA
ATOM      2  O   UNL d   1      16.378   7.401 -11.000  0.00  0.00    -0.287 OA
ATOM      3  C   UNL d   1      14.870   7.205 -10.170  0.00  0.00     0.081 A 
ATOM      4  C   UNL d   1      14.324   6.763  -9.459  0.00  0.00     0.095 A 
ATOM      5  C   UNL d   1      15.702   5.828  -8.983  0.00  0.00     0.090 A 
ATOM      6  C   UNL d   1      15.832   6.959 -10.288  0.00  0.00     0.190 A 
ATOM      7  C   UNL d   1      14.450   7.924 -10.796  0.00  0.00     0.085 A 
ATOM      8  C   UNL d   1      16.248   6.270  -9.695  0.00  0.00     0.094 A 
ATOM      9  C   UNL d   1      13.321   7.009  -9.324  0.00  0.00     0.075 A 
ATOM     10  C   UNL d   1      12.880   7.725  -9.938  0.00  0.00     0.071 A 
ATOM     11  C   UNL d   1      13.449   8.186 -10.679  0.00  0.00     0.074 A 
ENDROOT
BRANCH   5  12
ATOM     12  C   UNL d   1      16.118   5.139  -8.390  0.00  0.00    -0.002 A 
ATOM     13  C   UNL d   1      16.099   4.174  -8.653  0.00  0.00     0.014 A 
ATOM     14  C   UNL d   1      16.515   3.485  -8.060  0.00  0.00     0.001 A 
ATOM     15  C   UNL d   1      16.950   3.761  -7.203  0.00  0.00     0.000 A 
ATOM     16  C   UNL d   1      16.969   4.725  -6.939  0.00  0.00     0.001 A 
ATOM     17  C   UNL d   1      16.553   5.414  -7.533  0.00  0.00     0.014 A 
ENDBRANCH   5  12
BRANCH   7  18
ATOM     18  O   UNL d   1      15.005   8.360 -11.504  0.00  0.00    -0.360 OA
ATOM     19  H   UNL d   1      15.355   8.852 -11.364  0.00  0.00     0.217 HD
ENDBRANCH   7  18
BRANCH  10  20
ATOM     20  O   UNL d   1      11.918   7.969  -9.817  0.00  0.00    -0.361 OA
ATOM     21  H   UNL d   1      11.571   7.663  -9.404  0.00  0.00     0.217 HD
ENDBRANCH  10  20
TORSDOF 3
ENDMDL
MODEL 4
REMARK VINA RESULT:     0.000     43.580     45.165
REMARK INTER + INTRA:           1.016
REMARK INTER:                   0.000
REMARK INTRA:                   1.016
REMARK UNBOUND:                 1.016
REMARK  3 active torsions:
REMARK  status: ('A' for Active; 'I' for Inactive)
REMARK    1  A    between atoms: O_2  and  C_10 
REMARK    2  A    between atoms: O_4  and  C_13 
REMARK    3  A    between atoms: C_7  and  C_9 
ROOT
ATOM      1  O   UNL d   1      19.458  13.423  -8.701  0.00  0.00    -0.309 OA
ATOM      2  O   UNL d   1      21.052  11.827  -6.723  0.00  0.00    -0.287 OA
ATOM      3  C   UNL d   1      20.923  13.166  -7.814  0.00  0.00     0.081 A 
ATOM      4  C   UNL d   1      20.392  13.698  -8.473  0.00  0.00     0.095 A 
ATOM      5  C   UNL d   1      19.055  12.616  -8.270  0.00  0.00     0.090 A 
ATOM      6  C   UNL d   1      20.521  12.359  -7.383  0.00  0.00     0.190 A 
ATOM      7  C   UNL d   1      21.897  13.441  -7.567  0.00  0.00     0.085 A 
ATOM      8  C   UNL d   1      19.587  12.084  -7.610  0.00  0.00     0.094 A 
ATOM      9  C   UNL d   1      20.798  14.541  -8.931  0.00  0.00     0.075 A 
ATOM     10  C   UNL d   1      21.770  14.834  -8.699  0.00  0.00     0.071 A 
ATOM     11  C   UNL d   1      22.323  14.280  -8.013  0.00  0.00     0.074 A 
ENDROOT
BRANCH   5  12
ATOM     12  C   UNL d   1      18.121  12.340  -8.497  0.00  0.00    -0.002 A 
ATOM     13  C   UNL d   1      17.352  12.697  -7.968  0.00  0.00     0.014 A 
ATOM     14  C   UNL d   1      16.418  12.422  -8.196  0.00  0.00     0.001 A 
ATOM     15  C   UNL d   1      16.253  11.790  -8.953  0.00  0.00     0.000 A 
ATOM     16  C   UNL d   1      17.023  11.433  -9.482  0.00  0.00     0.001 A 
ATOM     17  C   UNL d   1      17.957  11.708  -9.255  0.00  0.00     0.014 A 
ENDBRANCH   5  12
BRANCH   7  18
ATOM     18  O   UNL d   1      22.419  12.901  -6.907  0.00  0.00    -0.360 OA
ATOM     19  H   UNL d   1      22.809  13.183  -6.517  0.00  0.00     0.217 HD
ENDBRANCH   7  18
BRANCH  10  20
ATOM     20  O   UNL d   1      22.169  15.642  -9.133  0.00  0.00    -0.361 OA
ATOM     21  H   UNL d   1      22.155  15.701  -9.750  0.00  0.00     0.217 HD
ENDBRANCH  10  20
TORSDOF 3
ENDMDL
MODEL 5
REMARK VINA RESULT:     0.000     43.067     44.261
REMARK INTER + INTRA:           1.016
REMARK INTER:                   0.000
REMARK INTRA:                   1.016
REMARK UNBOUND:                 1.016
REMARK  3 active torsions:
REMARK  status: ('A' for Active; 'I' for Inactive)
REMARK    1  A    between atoms: O_2  and  C_10 
REMARK    2  A    between atoms: O_4  and  C_13 
REMARK    3  A    between atoms: C_7  and  C_9 
ROOT
ATOM      1  O   UNL d   1      17.924  13.906  -8.341  0.00  0.00    -0.309 OA
ATOM      2  O   UNL d   1      18.392  13.203  -5.462  0.00  0.00    -0.287 OA
ATOM      3  C   UNL d   1      18.621  14.279  -6.800  0.00  0.00     0.081 A 
ATOM      4  C   UNL d   1      18.465  14.514  -7.759  0.00  0.00     0.095 A 
ATOM      5  C   UNL d   1      17.540  13.064  -7.963  0.00  0.00     0.090 A 
ATOM      6  C   UNL d   1      18.236  13.437  -6.422  0.00  0.00     0.190 A 
ATOM      7  C   UNL d   1      19.181  14.903  -6.182  0.00  0.00     0.085 A 
ATOM      8  C   UNL d   1      17.696  12.829  -7.004  0.00  0.00     0.094 A 
ATOM      9  C   UNL d   1      18.859  15.388  -8.168  0.00  0.00     0.075 A 
ATOM     10  C   UNL d   1      19.423  16.026  -7.568  0.00  0.00     0.071 A 
ATOM     11  C   UNL d   1      19.585  15.782  -6.569  0.00  0.00     0.074 A 
ENDROOT
BRANCH   5  12
ATOM     12  C   UNL d   1      16.999  12.456  -8.545  0.00  0.00    -0.002 A 
ATOM     13  C   UNL d   1      16.009  12.580  -8.614  0.00  0.00     0.014 A 
ATOM     14  C   UNL d   1      15.469  11.972  -9.196  0.00  0.00     0.001 A 
ATOM     15  C   UNL d   1      15.918  11.240  -9.708  0.00  0.00     0.000 A 
ATOM     16  C   UNL d   1      16.908  11.116  -9.639  0.00  0.00     0.001 A 
ATOM     17  C   UNL d   1      17.449  11.724  -9.057  0.00  0.00     0.014 A 
ENDBRANCH   5  12
BRANCH   7  18
ATOM     18  O   UNL d   1      19.331  14.658  -5.224  0.00  0.00    -0.360 OA
ATOM     19  H   UNL d   1      19.814  14.895  -4.916  0.00  0.00     0.217 HD
ENDBRANCH   7  18
BRANCH  10  20
ATOM     20  O   UNL d   1      19.806  16.867  -7.950  0.00  0.00    -0.361 OA
ATOM     21  H   UNL d   1      20.114  16.851  -8.488  0.00  0.00     0.217 HD
ENDBRANCH  10  20
TORSDOF 3
ENDMDL
