MODEL 1
REMARK VINA RESULT:     0.000      0.000      0.000
REMARK INTER + INTRA:           0.000
REMARK INTER:                   0.000
REMARK INTRA:                   0.000
REMARK UNBOUND:                 0.000
REMARK  0 active torsions:
REMARK  status: ('A' for Active; 'I' for Inactive)
ROOT
ATOM      1  O   UNL d   1     -21.295 -15.274  -4.577  0.00  0.00    -0.265 OA
ATOM      2  O   UNL d   1     -19.609 -12.515  -5.818  0.00  0.00    -0.246 OA
ATOM      3  N   UNL d   1     -21.272 -12.770  -6.228  0.00  0.00    -0.286 N 
ATOM      4  N   UNL d   1     -23.026 -14.543  -5.664  0.00  0.00    -0.338 N 
ATOM      5  N   UNL d   1     -20.452 -13.894  -5.198  0.00  0.00    -0.269 N 
ATOM      6  N   UNL d   1     -23.014 -13.199  -6.550  0.00  0.00    -0.223 NA
ATOM      7  C   UNL d   1     -22.115 -14.149  -5.608  0.00  0.00     0.151 A 
ATOM      8  C   UNL d   1     -22.107 -13.314  -6.158  0.00  0.00     0.167 A 
ATOM      9  C   UNL d   1     -21.287 -14.439  -5.127  0.00  0.00     0.282 A 
ATOM     10  C   UNL d   1     -20.444 -13.059  -5.748  0.00  0.00     0.332 A 
ATOM     11  C   UNL d   1     -23.581 -13.957  -6.245  0.00  0.00     0.212 A 
ATOM     12  C   UNL d   1     -21.264 -11.935  -6.779  0.00  0.00     0.163 C 
ATOM     13  C   UNL d   1     -23.332 -15.382  -5.214  0.00  0.00     0.157 C 
ATOM     14  C   UNL d   1     -19.624 -14.184  -4.717  0.00  0.00     0.164 C 
ENDROOT
TORSDOF 0
ENDMDL
MODEL 2
REMARK VINA RESULT:     0.000     20.644     22.158
REMARK INTER + INTRA:           0.000
REMARK INTER:                   0.000
REMARK INTRA:                   0.000
REMARK UNBOUND:                 0.000
REMARK  0 active torsions:
REMARK  status: ('A' for Active; 'I' for Inactive)
ROOT
ATOM      1  O   UNL d   1      -3.302  -4.180   3.448  0.00  0.00    -0.265 OA
ATOM      2  O   UNL d   1      -4.112  -1.709   5.737  0.00  0.00    -0.246 OA
ATOM      3  N   UNL d   1      -5.350  -2.740   5.101  0.00  0.00    -0.286 N 
ATOM      4  N   UNL d   1      -5.413  -4.685   3.441  0.00  0.00    -0.338 N 
ATOM      5  N   UNL d   1      -3.707  -2.944   4.592  0.00  0.00    -0.269 N 
ATOM      6  N   UNL d   1      -6.512  -3.912   4.328  0.00  0.00    -0.223 NA
ATOM      7  C   UNL d   1      -4.945  -3.975   3.956  0.00  0.00     0.151 A 
ATOM      8  C   UNL d   1      -5.627  -3.495   4.507  0.00  0.00     0.167 A 
ATOM      9  C   UNL d   1      -3.984  -3.700   3.999  0.00  0.00     0.282 A 
ATOM     10  C   UNL d   1      -4.389  -2.464   5.143  0.00  0.00     0.332 A 
ATOM     11  C   UNL d   1      -6.380  -4.646   3.670  0.00  0.00     0.212 A 
ATOM     12  C   UNL d   1      -6.032  -2.260   5.652  0.00  0.00     0.163 C 
ATOM     13  C   UNL d   1      -4.987  -5.326   2.803  0.00  0.00     0.157 C 
ATOM     14  C   UNL d   1      -2.746  -2.669   4.635  0.00  0.00     0.164 C 
ENDROOT
TORSDOF 0
ENDMDL
MODEL 3
REMARK VINA RESULT:     0.000     53.304     54.017
REMARK INTER + INTRA:           0.000
REMARK INTER:                   0.000
REMARK INTRA:                   0.000
REMARK UNBOUND:                 0.000
REMARK  0 active torsions:
REMARK  status: ('A' for Active; 'I' for Inactive)
ROOT
ATOM      1  O   UNL d   1     -35.528  31.242  20.829  0.00  0.00    -0.265 OA
ATOM      2  O   UNL d   1     -34.508  30.568  24.070  0.00  0.00    -0.246 OA
ATOM      3  N   UNL d   1     -33.332  30.745  22.811  0.00  0.00    -0.286 N 
ATOM      4  N   UNL d   1     -33.422  31.229  20.301  0.00  0.00    -0.338 N 
ATOM      5  N   UNL d   1     -35.018  30.905  22.449  0.00  0.00    -0.269 N 
ATOM      6  N   UNL d   1     -32.244  30.963  21.365  0.00  0.00    -0.223 NA
ATOM      7  C   UNL d   1     -33.842  31.082  21.190  0.00  0.00     0.151 A 
ATOM      8  C   UNL d   1     -33.110  30.916  21.851  0.00  0.00     0.167 A 
ATOM      9  C   UNL d   1     -34.796  31.076  21.489  0.00  0.00     0.282 A 
ATOM     10  C   UNL d   1     -34.286  30.739  23.110  0.00  0.00     0.332 A 
ATOM     11  C   UNL d   1     -32.436  31.156  20.409  0.00  0.00     0.212 A 
ATOM     12  C   UNL d   1     -32.600  30.579  23.472  0.00  0.00     0.163 C 
ATOM     13  C   UNL d   1     -33.907  31.419  19.447  0.00  0.00     0.157 C 
ATOM     14  C   UNL d   1     -35.972  30.899  22.748  0.00  0.00     0.164 C 
ENDROOT
TORSDOF 0
ENDMDL
MODEL 4
REMARK VINA RESULT:     0.000     53.807     54.519
REMARK INTER + INTRA:           0.000
REMARK INTER:                   0.000
REMARK INTRA:                   0.000
REMARK UNBOUND:                 0.000
REMARK  0 active torsions:
REMARK  status: ('A' for Active; 'I' for Inactive)
ROOT
ATOM      1  O   UNL d   1     -37.400  32.409  21.001  0.00  0.00    -0.265 OA
ATOM      2  O   UNL d   1     -35.878  30.692  23.596  0.00  0.00    -0.246 OA
ATOM      3  N   UNL d   1     -35.185  30.654  22.010  0.00  0.00    -0.286 N 
ATOM      4  N   UNL d   1     -35.793  31.670  19.742  0.00  0.00    -0.338 N 
ATOM      5  N   UNL d   1     -36.639  31.550  22.299  0.00  0.00    -0.269 N 
ATOM      6  N   UNL d   1     -34.604  30.729  20.284  0.00  0.00    -0.223 NA
ATOM      7  C   UNL d   1     -35.946  31.512  20.712  0.00  0.00     0.151 A 
ATOM      8  C   UNL d   1     -35.208  30.928  21.048  0.00  0.00     0.167 A 
ATOM      9  C   UNL d   1     -36.662  31.824  21.337  0.00  0.00     0.282 A 
ATOM     10  C   UNL d   1     -35.901  30.965  22.635  0.00  0.00     0.332 A 
ATOM     11  C   UNL d   1     -34.965  31.187  19.478  0.00  0.00     0.212 A 
ATOM     12  C   UNL d   1     -34.447  30.069  22.346  0.00  0.00     0.163 C 
ATOM     13  C   UNL d   1     -36.370  32.219  19.138  0.00  0.00     0.157 C 
ATOM     14  C   UNL d   1     -37.355  31.862  22.924  0.00  0.00     0.164 C 
ENDROOT
TORSDOF 0
ENDMDL
MODEL 5
REMARK VINA RESULT:     0.000     53.480     54.131
REMARK INTER + INTRA:           0.000
REMARK INTER:                   0.000
REMARK INTRA:                   0.000
REMARK UNBOUND:                 0.000
REMARK  0 active torsions:
REMARK  status: ('A' for Active; 'I' for Inactive)
ROOT
ATOM      1  O   UNL d   1     -37.014  31.094  21.419  0.00  0.00    -0.265 OA
ATOM      2  O   UNL d   1     -36.192  30.918  24.780  0.00  0.00    -0.246 OA
ATOM      3  N   UNL d   1     -35.791  29.608  23.720  0.00  0.00    -0.286 N 
ATOM      4  N   UNL d   1     -36.107  29.131  21.228  0.00  0.00    -0.338 N 
ATOM      5  N   UNL d   1     -36.603  31.006  23.099  0.00  0.00    -0.269 N 
ATOM      6  N   UNL d   1     -35.451  28.334  22.462  0.00  0.00    -0.223 NA
ATOM      7  C   UNL d   1     -36.202  29.696  22.040  0.00  0.00     0.151 A 
ATOM      8  C   UNL d   1     -35.794  29.200  22.807  0.00  0.00     0.167 A 
ATOM      9  C   UNL d   1     -36.606  30.599  22.186  0.00  0.00     0.282 A 
ATOM     10  C   UNL d   1     -36.195  30.511  23.867  0.00  0.00     0.332 A 
ATOM     11  C   UNL d   1     -35.644  28.291  21.488  0.00  0.00     0.212 A 
ATOM     12  C   UNL d   1     -35.383  29.112  24.487  0.00  0.00     0.163 C 
ATOM     13  C   UNL d   1     -36.422  29.367  20.309  0.00  0.00     0.157 C 
ATOM     14  C   UNL d   1     -37.007  31.909  23.246  0.00  0.00     0.164 C 
ENDROOT
TORSDOF 0
ENDMDL
