MODEL 1
REMARK VINA RESULT:    -0.050      0.000      0.000
REMARK INTER + INTRA:           0.871
REMARK INTER:                  -0.059
REMARK INTRA:                   0.930
REMARK UNBOUND:                 0.934
REMARK  6 active torsions:
REMARK  status: ('A' for Active; 'I' for Inactive)
REMARK    1  A    between atoms: O_1  and  C_8 
REMARK    2  A    between atoms: O_2  and  C_9 
REMARK    3  A    between atoms: O_3  and  C_13 
REMARK    4  A    between atoms: C_5  and  C_11 
REMARK    5  A    between atoms: C_11  and  C_12 
REMARK    6  A    between atoms: C_12  and  C_13 
ROOT
ATOM      1  C   UNL d   1      47.554  36.478  14.009  0.00  0.00    -0.033 A 
ATOM      2  C   UNL d   1      47.315  36.040  14.875  0.00  0.00     0.050 A 
ATOM      3  C   UNL d   1      48.511  36.532  13.722  0.00  0.00     0.014 A 
ATOM      4  C   UNL d   1      48.033  35.655  15.455  0.00  0.00     0.099 A 
ATOM      5  C   UNL d   1      48.990  35.709  15.169  0.00  0.00     0.098 A 
ATOM      6  C   UNL d   1      49.229  36.148  14.303  0.00  0.00     0.040 A 
ENDROOT
BRANCH   1   7
ATOM      7  C   UNL d   1      46.836  36.863  13.428  0.00  0.00     0.018 C 
BRANCH   7   8
ATOM      8  C   UNL d   1      46.361  36.281  12.769  0.00  0.00     0.082 C 
BRANCH   8   9
ATOM      9  C   UNL d   1      45.651  36.668  12.180  0.00  0.00     0.165 C 
ATOM     10  O   UNL d   1      45.893  37.040  11.284  0.00  0.00    -0.647 OA
BRANCH   9  11
ATOM     11  O   UNL d   1      44.700  36.683  12.487  0.00  0.00    -0.773 OA
ATOM     12  H   UNL d   1      44.478  37.180  12.784  0.00  0.00     0.167 HD
ENDBRANCH   9  11
ENDBRANCH   8   9
ENDBRANCH   7   8
ENDBRANCH   1   7
BRANCH   4  13
ATOM     13  O   UNL d   1      47.795  35.217  16.322  0.00  0.00    -0.358 OA
ATOM     14  H   UNL d   1      47.211  35.034  16.426  0.00  0.00     0.217 HD
ENDBRANCH   4  13
BRANCH   5  15
ATOM     15  O   UNL d   1      49.708  35.325  15.749  0.00  0.00    -0.358 OA
ATOM     16  H   UNL d   1      50.189  35.029  15.493  0.00  0.00     0.217 HD
ENDBRANCH   5  15
TORSDOF 6
ENDMDL
MODEL 2
REMARK VINA RESULT:    -0.004     88.856     90.335
REMARK INTER + INTRA:           0.930
REMARK INTER:                   0.000
REMARK INTRA:                   0.930
REMARK UNBOUND:                 0.934
REMARK  6 active torsions:
REMARK  status: ('A' for Active; 'I' for Inactive)
REMARK    1  A    between atoms: O_1  and  C_8 
REMARK    2  A    between atoms: O_2  and  C_9 
REMARK    3  A    between atoms: O_3  and  C_13 
REMARK    4  A    between atoms: C_5  and  C_11 
REMARK    5  A    between atoms: C_11  and  C_12 
REMARK    6  A    between atoms: C_12  and  C_13 
ROOT
ATOM      1  C   UNL d   1     -32.912  -4.219  20.500  0.00  0.00    -0.033 A 
ATOM      2  C   UNL d   1     -32.776  -3.232  20.412  0.00  0.00     0.050 A 
ATOM      3  C   UNL d   1     -32.459  -4.722  21.236  0.00  0.00     0.014 A 
ATOM      4  C   UNL d   1     -32.187  -2.749  21.059  0.00  0.00     0.099 A 
ATOM      5  C   UNL d   1     -31.734  -3.252  21.795  0.00  0.00     0.098 A 
ATOM      6  C   UNL d   1     -31.870  -4.239  21.883  0.00  0.00     0.040 A 
ENDROOT
BRANCH   1   7
ATOM      7  C   UNL d   1     -33.501  -4.703  19.853  0.00  0.00     0.018 C 
BRANCH   7   8
ATOM      8  C   UNL d   1     -34.486  -4.758  20.018  0.00  0.00     0.082 C 
BRANCH   8   9
ATOM      9  C   UNL d   1     -35.073  -5.254  19.378  0.00  0.00     0.165 C 
ATOM     10  O   UNL d   1     -35.472  -4.778  18.594  0.00  0.00    -0.647 OA
BRANCH   9  11
ATOM     11  O   UNL d   1     -35.261  -6.226  19.522  0.00  0.00    -0.773 OA
ATOM     12  H   UNL d   1     -35.588  -6.544  19.102  0.00  0.00     0.167 HD
ENDBRANCH   9  11
ENDBRANCH   8   9
ENDBRANCH   7   8
ENDBRANCH   1   7
BRANCH   4  13
ATOM     13  O   UNL d   1     -32.051  -1.762  20.971  0.00  0.00    -0.358 OA
ATOM     14  H   UNL d   1     -32.215  -1.472  20.447  0.00  0.00     0.217 HD
ENDBRANCH   4  13
BRANCH   5  15
ATOM     15  O   UNL d   1     -31.145  -2.768  22.442  0.00  0.00    -0.358 OA
ATOM     16  H   UNL d   1     -31.030  -2.164  22.365  0.00  0.00     0.217 HD
ENDBRANCH   5  15
TORSDOF 6
ENDMDL
MODEL 3
REMARK VINA RESULT:    -0.004     58.012     59.100
REMARK INTER + INTRA:           0.930
REMARK INTER:                   0.000
REMARK INTRA:                   0.930
REMARK UNBOUND:                 0.934
REMARK  6 active torsions:
REMARK  status: ('A' for Active; 'I' for Inactive)
REMARK    1  A    between atoms: O_1  and  C_8 
REMARK    2  A    between atoms: O_2  and  C_9 
REMARK    3  A    between atoms: O_3  and  C_13 
REMARK    4  A    between atoms: C_5  and  C_11 
REMARK    5  A    between atoms: C_11  and  C_12 
REMARK    6  A    between atoms: C_12  and  C_13 
ROOT
ATOM      1  C   UNL d   1      -4.035  12.646  30.765  0.00  0.00    -0.033 A 
ATOM      2  C   UNL d   1      -3.288  12.797  31.412  0.00  0.00     0.050 A 
ATOM      3  C   UNL d   1      -3.948  12.961  29.820  0.00  0.00     0.014 A 
ATOM      4  C   UNL d   1      -2.454  13.262  31.115  0.00  0.00     0.099 A 
ATOM      5  C   UNL d   1      -2.368  13.578  30.170  0.00  0.00     0.098 A 
ATOM      6  C   UNL d   1      -3.115  13.427  29.522  0.00  0.00     0.040 A 
ENDROOT
BRANCH   1   7
ATOM      7  C   UNL d   1      -4.868  12.180  31.063  0.00  0.00     0.018 C 
BRANCH   7   8
ATOM      8  C   UNL d   1      -5.610  12.702  31.483  0.00  0.00     0.082 C 
BRANCH   8   9
ATOM      9  C   UNL d   1      -6.449  12.239  31.768  0.00  0.00     0.165 C 
ATOM     10  O   UNL d   1      -7.217  12.161  31.133  0.00  0.00    -0.647 OA
BRANCH   9  11
ATOM     11  O   UNL d   1      -6.519  11.853  32.688  0.00  0.00    -0.773 OA
ATOM     12  H   UNL d   1      -6.840  11.330  32.781  0.00  0.00     0.167 HD
ENDBRANCH   9  11
ENDBRANCH   8   9
ENDBRANCH   7   8
ENDBRANCH   1   7
BRANCH   4  13
ATOM     13  O   UNL d   1      -1.707  13.413  31.762  0.00  0.00    -0.358 OA
ATOM     14  H   UNL d   1      -1.388  13.945  31.749  0.00  0.00     0.217 HD
ENDBRANCH   4  13
BRANCH   5  15
ATOM     15  O   UNL d   1      -1.535  14.043  29.872  0.00  0.00    -0.358 OA
ATOM     16  H   UNL d   1      -1.567  14.496  29.449  0.00  0.00     0.217 HD
ENDBRANCH   5  15
TORSDOF 6
ENDMDL
MODEL 4
REMARK VINA RESULT:    -0.004     77.842     79.161
REMARK INTER + INTRA:           0.930
REMARK INTER:                   0.000
REMARK INTRA:                   0.930
REMARK UNBOUND:                 0.934
REMARK  6 active torsions:
REMARK  status: ('A' for Active; 'I' for Inactive)
REMARK    1  A    between atoms: O_1  and  C_8 
REMARK    2  A    between atoms: O_2  and  C_9 
REMARK    3  A    between atoms: O_3  and  C_13 
REMARK    4  A    between atoms: C_5  and  C_11 
REMARK    5  A    between atoms: C_11  and  C_12 
REMARK    6  A    between atoms: C_12  and  C_13 
ROOT
ATOM      1  C   UNL d   1     -24.051   5.531  29.623  0.00  0.00    -0.033 A 
ATOM      2  C   UNL d   1     -24.116   4.638  29.178  0.00  0.00     0.050 A 
ATOM      3  C   UNL d   1     -24.040   5.591  30.621  0.00  0.00     0.014 A 
ATOM      4  C   UNL d   1     -24.170   3.806  29.730  0.00  0.00     0.099 A 
ATOM      5  C   UNL d   1     -24.159   3.867  30.728  0.00  0.00     0.098 A 
ATOM      6  C   UNL d   1     -24.094   4.759  31.174  0.00  0.00     0.040 A 
ENDROOT
BRANCH   1   7
ATOM      7  C   UNL d   1     -23.997   6.362  29.071  0.00  0.00     0.018 C 
BRANCH   7   8
ATOM      8  C   UNL d   1     -23.111   6.689  28.744  0.00  0.00     0.082 C 
BRANCH   8   9
ATOM      9  C   UNL d   1     -23.055   7.529  28.204  0.00  0.00     0.165 C 
ATOM     10  O   UNL d   1     -22.915   8.408  28.659  0.00  0.00    -0.647 OA
BRANCH   9  11
ATOM     11  O   UNL d   1     -23.140   7.489  27.208  0.00  0.00    -0.773 OA
ATOM     12  H   UNL d   1     -22.676   7.261  26.866  0.00  0.00     0.167 HD
ENDBRANCH   9  11
ENDBRANCH   8   9
ENDBRANCH   7   8
ENDBRANCH   1   7
BRANCH   4  13
ATOM     13  O   UNL d   1     -24.235   2.913  29.284  0.00  0.00    -0.358 OA
ATOM     14  H   UNL d   1     -24.787   2.695  29.106  0.00  0.00     0.217 HD
ENDBRANCH   4  13
BRANCH   5  15
ATOM     15  O   UNL d   1     -24.212   3.035  31.280  0.00  0.00    -0.358 OA
ATOM     16  H   UNL d   1     -24.661   2.620  31.173  0.00  0.00     0.217 HD
ENDBRANCH   5  15
TORSDOF 6
ENDMDL
MODEL 5
REMARK VINA RESULT:    -0.004     54.266     56.032
REMARK INTER + INTRA:           0.930
REMARK INTER:                   0.000
REMARK INTRA:                   0.930
REMARK UNBOUND:                 0.934
REMARK  6 active torsions:
REMARK  status: ('A' for Active; 'I' for Inactive)
REMARK    1  A    between atoms: O_1  and  C_8 
REMARK    2  A    between atoms: O_2  and  C_9 
REMARK    3  A    between atoms: O_3  and  C_13 
REMARK    4  A    between atoms: C_5  and  C_11 
REMARK    5  A    between atoms: C_11  and  C_12 
REMARK    6  A    between atoms: C_12  and  C_13 
ROOT
ATOM      1  C   UNL d   1      16.759  10.924 -25.761  0.00  0.00    -0.033 A 
ATOM      2  C   UNL d   1      17.527  10.840 -26.395  0.00  0.00     0.050 A 
ATOM      3  C   UNL d   1      16.285  10.105 -25.437  0.00  0.00     0.014 A 
ATOM      4  C   UNL d   1      17.823   9.936 -26.705  0.00  0.00     0.099 A 
ATOM      5  C   UNL d   1      17.350   9.117 -26.381  0.00  0.00     0.098 A 
ATOM      6  C   UNL d   1      16.581   9.201 -25.747  0.00  0.00     0.040 A 
ENDROOT
BRANCH   1   7
ATOM      7  C   UNL d   1      16.463  11.828 -25.451  0.00  0.00     0.018 C 
BRANCH   7   8
ATOM      8  C   UNL d   1      16.900  12.252 -24.657  0.00  0.00     0.082 C 
BRANCH   8   9
ATOM      9  C   UNL d   1      16.595  13.149 -24.339  0.00  0.00     0.165 C 
ATOM     10  O   UNL d   1      17.009  13.979 -24.711  0.00  0.00    -0.647 OA
BRANCH   9  11
ATOM     11  O   UNL d   1      15.875  13.216 -23.648  0.00  0.00    -0.773 OA
ATOM     12  H   UNL d   1      16.004  13.448 -23.087  0.00  0.00     0.167 HD
ENDBRANCH   9  11
ENDBRANCH   8   9
ENDBRANCH   7   8
ENDBRANCH   1   7
BRANCH   4  13
ATOM     13  O   UNL d   1      18.592   9.852 -27.339  0.00  0.00    -0.358 OA
ATOM     14  H   UNL d   1      18.888  10.359 -27.535  0.00  0.00     0.217 HD
ENDBRANCH   4  13
BRANCH   5  15
ATOM     15  O   UNL d   1      17.645   8.213 -26.691  0.00  0.00    -0.358 OA
ATOM     16  H   UNL d   1      18.248   8.068 -26.693  0.00  0.00     0.217 HD
ENDBRANCH   5  15
TORSDOF 6
ENDMDL
