MODEL 1
REMARK VINA RESULT:    -7.323      0.000      0.000
REMARK INTER + INTRA:          -6.827
REMARK INTER:                  -8.772
REMARK INTRA:                   1.946
REMARK UNBOUND:                 1.995
REMARK  5 active torsions:
REMARK  status: ('A' for Active; 'I' for Inactive)
REMARK    1  A    between atoms: O_2  and  C_13 
REMARK    2  A    between atoms: O_3  and  C_19 
REMARK    3  A    between atoms: O_5  and  C_17 
REMARK    4  A    between atoms: O_6  and  C_21 
REMARK    5  A    between atoms: C_8  and  C_10 
ROOT
ATOM      1  O   UNL d   1      35.725  37.395  16.413  0.00  0.00    -0.309 OA
ATOM      2  O   UNL d   1      34.647  38.633  13.902  0.00  0.00    -0.287 OA
ATOM      3  C   UNL d   1      35.987  38.047  14.830  0.00  0.00     0.081 A 
ATOM      4  C   UNL d   1      34.744  37.568  16.322  0.00  0.00     0.090 A 
ATOM      5  C   UNL d   1      36.346  37.634  15.667  0.00  0.00     0.095 A 
ATOM      6  C   UNL d   1      35.006  38.221  14.739  0.00  0.00     0.190 A 
ATOM      7  C   UNL d   1      34.385  37.981  15.485  0.00  0.00     0.094 A 
ATOM      8  C   UNL d   1      36.622  38.302  14.045  0.00  0.00     0.085 A 
ATOM      9  C   UNL d   1      37.365  37.448  15.777  0.00  0.00     0.075 A 
ATOM     10  C   UNL d   1      38.018  37.694  15.004  0.00  0.00     0.071 A 
ATOM     11  C   UNL d   1      37.645  38.124  14.133  0.00  0.00     0.074 A 
ENDROOT
BRANCH   4  12
ATOM     12  C   UNL d   1      34.122  37.329  17.068  0.00  0.00     0.001 A 
ATOM     13  C   UNL d   1      33.338  36.734  16.894  0.00  0.00     0.054 A 
ATOM     14  C   UNL d   1      32.717  36.494  17.640  0.00  0.00     0.102 A 
ATOM     15  C   UNL d   1      32.880  36.850  18.560  0.00  0.00     0.099 A 
ATOM     16  C   UNL d   1      33.664  37.446  18.734  0.00  0.00     0.040 A 
ATOM     17  C   UNL d   1      34.285  37.685  17.988  0.00  0.00     0.017 A 
BRANCH  14  18
ATOM     18  O   UNL d   1      31.932  35.899  17.466  0.00  0.00    -0.353 OA
ATOM     19  C   UNL d   1      31.879  35.379  16.613  0.00  0.00     0.210 C 
ENDBRANCH  14  18
BRANCH  15  20
ATOM     20  O   UNL d   1      32.258  36.611  19.306  0.00  0.00    -0.358 OA
ATOM     21  H   UNL d   1      32.391  36.782  19.887  0.00  0.00     0.217 HD
ENDBRANCH  15  20
ENDBRANCH   4  12
BRANCH   8  22
ATOM     22  O   UNL d   1      36.252  38.714  13.213  0.00  0.00    -0.360 OA
ATOM     23  H   UNL d   1      35.965  39.263  13.240  0.00  0.00     0.217 HD
ENDBRANCH   8  22
BRANCH  10  24
ATOM     24  O   UNL d   1      38.999  37.519  15.100  0.00  0.00    -0.361 OA
ATOM     25  H   UNL d   1      39.284  37.641  15.636  0.00  0.00     0.217 HD
ENDBRANCH  10  24
TORSDOF 5
ENDMDL
MODEL 2
REMARK VINA RESULT:    -7.184      2.954      7.003
REMARK INTER + INTRA:          -6.659
REMARK INTER:                  -8.490
REMARK INTRA:                   1.831
REMARK UNBOUND:                 1.995
REMARK  5 active torsions:
REMARK  status: ('A' for Active; 'I' for Inactive)
REMARK    1  A    between atoms: O_2  and  C_13 
REMARK    2  A    between atoms: O_3  and  C_19 
REMARK    3  A    between atoms: O_5  and  C_17 
REMARK    4  A    between atoms: O_6  and  C_21 
REMARK    5  A    between atoms: C_8  and  C_10 
ROOT
ATOM      1  O   UNL d   1      32.217  36.332  20.536  0.00  0.00    -0.309 OA
ATOM      2  O   UNL d   1      33.205  33.538  21.002  0.00  0.00    -0.287 OA
ATOM      3  C   UNL d   1      32.189  34.865  21.457  0.00  0.00     0.081 A 
ATOM      4  C   UNL d   1      32.903  35.936  19.926  0.00  0.00     0.090 A 
ATOM      5  C   UNL d   1      31.860  35.797  21.302  0.00  0.00     0.095 A 
ATOM      6  C   UNL d   1      32.876  34.469  20.847  0.00  0.00     0.190 A 
ATOM      7  C   UNL d   1      33.233  35.005  20.082  0.00  0.00     0.094 A 
ATOM      8  C   UNL d   1      31.827  34.296  22.250  0.00  0.00     0.085 A 
ATOM      9  C   UNL d   1      31.145  36.223  21.929  0.00  0.00     0.075 A 
ATOM     10  C   UNL d   1      30.769  35.671  22.728  0.00  0.00     0.071 A 
ATOM     11  C   UNL d   1      31.112  34.702  22.890  0.00  0.00     0.074 A 
ENDROOT
BRANCH   4  12
ATOM     12  C   UNL d   1      33.260  36.471  19.161  0.00  0.00     0.001 A 
ATOM     13  C   UNL d   1      32.920  36.308  18.235  0.00  0.00     0.054 A 
ATOM     14  C   UNL d   1      33.277  36.843  17.469  0.00  0.00     0.102 A 
ATOM     15  C   UNL d   1      33.974  37.542  17.630  0.00  0.00     0.099 A 
ATOM     16  C   UNL d   1      34.314  37.706  18.556  0.00  0.00     0.040 A 
ATOM     17  C   UNL d   1      33.957  37.170  19.321  0.00  0.00     0.017 A 
BRANCH  14  18
ATOM     18  O   UNL d   1      32.937  36.680  16.543  0.00  0.00    -0.353 OA
ATOM     19  C   UNL d   1      32.174  36.051  16.394  0.00  0.00     0.210 C 
ENDBRANCH  14  18
BRANCH  15  20
ATOM     20  O   UNL d   1      34.331  38.077  16.864  0.00  0.00    -0.358 OA
ATOM     21  H   UNL d   1      34.752  38.521  16.966  0.00  0.00     0.217 HD
ENDBRANCH  15  20
ENDBRANCH   4  12
BRANCH   8  22
ATOM     22  O   UNL d   1      32.163  33.366  22.396  0.00  0.00    -0.360 OA
ATOM     23  H   UNL d   1      32.302  33.007  21.910  0.00  0.00     0.217 HD
ENDBRANCH   8  22
BRANCH  10  24
ATOM     24  O   UNL d   1      30.083  36.071  23.336  0.00  0.00    -0.361 OA
ATOM     25  H   UNL d   1      29.531  35.797  23.402  0.00  0.00     0.217 HD
ENDBRANCH  10  24
TORSDOF 5
ENDMDL
MODEL 3
REMARK VINA RESULT:    -7.058      1.174      5.331
REMARK INTER + INTRA:          -6.508
REMARK INTER:                  -8.409
REMARK INTRA:                   1.901
REMARK UNBOUND:                 1.995
REMARK  5 active torsions:
REMARK  status: ('A' for Active; 'I' for Inactive)
REMARK    1  A    between atoms: O_2  and  C_13 
REMARK    2  A    between atoms: O_3  and  C_19 
REMARK    3  A    between atoms: O_5  and  C_17 
REMARK    4  A    between atoms: O_6  and  C_21 
REMARK    5  A    between atoms: C_8  and  C_10 
ROOT
ATOM      1  O   UNL d   1      33.773  36.471  16.386  0.00  0.00    -0.309 OA
ATOM      2  O   UNL d   1      34.091  37.944  18.980  0.00  0.00    -0.287 OA
ATOM      3  C   UNL d   1      33.462  36.601  18.084  0.00  0.00     0.081 A 
ATOM      4  C   UNL d   1      34.296  37.322  16.416  0.00  0.00     0.090 A 
ATOM      5  C   UNL d   1      33.356  36.110  17.220  0.00  0.00     0.095 A 
ATOM      6  C   UNL d   1      33.985  37.453  18.115  0.00  0.00     0.190 A 
ATOM      7  C   UNL d   1      34.402  37.813  17.281  0.00  0.00     0.094 A 
ATOM      8  C   UNL d   1      33.033  36.238  18.961  0.00  0.00     0.085 A 
ATOM      9  C   UNL d   1      32.814  35.222  17.172  0.00  0.00     0.075 A 
ATOM     10  C   UNL d   1      32.376  34.840  18.037  0.00  0.00     0.071 A 
ATOM     11  C   UNL d   1      32.487  35.351  18.937  0.00  0.00     0.074 A 
ENDROOT
BRANCH   4  12
ATOM     12  C   UNL d   1      34.714  37.683  15.582  0.00  0.00     0.001 A 
ATOM     13  C   UNL d   1      35.708  37.756  15.512  0.00  0.00     0.054 A 
ATOM     14  C   UNL d   1      36.126  38.117  14.678  0.00  0.00     0.102 A 
ATOM     15  C   UNL d   1      35.548  38.404  13.914  0.00  0.00     0.099 A 
ATOM     16  C   UNL d   1      34.553  38.331  13.984  0.00  0.00     0.040 A 
ATOM     17  C   UNL d   1      34.136  37.970  14.818  0.00  0.00     0.017 A 
BRANCH  14  18
ATOM     18  O   UNL d   1      37.120  38.190  14.608  0.00  0.00    -0.353 OA
ATOM     19  C   UNL d   1      37.682  38.174  15.435  0.00  0.00     0.210 C 
ENDBRANCH  14  18
BRANCH  15  20
ATOM     20  O   UNL d   1      35.965  38.765  13.079  0.00  0.00    -0.358 OA
ATOM     21  H   UNL d   1      36.265  39.308  13.092  0.00  0.00     0.217 HD
ENDBRANCH  15  20
ENDBRANCH   4  12
BRANCH   8  22
ATOM     22  O   UNL d   1      33.145  36.737  19.820  0.00  0.00    -0.360 OA
ATOM     23  H   UNL d   1      33.440  37.282  19.825  0.00  0.00     0.217 HD
ENDBRANCH   8  22
BRANCH  10  24
ATOM     24  O   UNL d   1      31.854  33.988  18.002  0.00  0.00    -0.361 OA
ATOM     25  H   UNL d   1      32.136  33.458  17.848  0.00  0.00     0.217 HD
ENDBRANCH  10  24
TORSDOF 5
ENDMDL
MODEL 4
REMARK VINA RESULT:    -7.013     22.184     23.936
REMARK INTER + INTRA:          -6.453
REMARK INTER:                  -8.393
REMARK INTRA:                   1.940
REMARK UNBOUND:                 1.995
REMARK  5 active torsions:
REMARK  status: ('A' for Active; 'I' for Inactive)
REMARK    1  A    between atoms: O_2  and  C_13 
REMARK    2  A    between atoms: O_3  and  C_19 
REMARK    3  A    between atoms: O_5  and  C_17 
REMARK    4  A    between atoms: O_6  and  C_21 
REMARK    5  A    between atoms: C_8  and  C_10 
ROOT
ATOM      1  O   UNL d   1      43.222  40.937  38.316  0.00  0.00    -0.309 OA
ATOM      2  O   UNL d   1      46.040  41.242  37.333  0.00  0.00    -0.287 OA
ATOM      3  C   UNL d   1      44.527  41.949  37.790  0.00  0.00     0.081 A 
ATOM      4  C   UNL d   1      43.797  40.129  38.186  0.00  0.00     0.090 A 
ATOM      5  C   UNL d   1      43.587  41.847  38.118  0.00  0.00     0.095 A 
ATOM      6  C   UNL d   1      45.101  41.141  37.661  0.00  0.00     0.190 A 
ATOM      7  C   UNL d   1      44.736  40.231  37.859  0.00  0.00     0.094 A 
ATOM      8  C   UNL d   1      44.920  42.890  37.580  0.00  0.00     0.085 A 
ATOM      9  C   UNL d   1      42.976  42.679  38.257  0.00  0.00     0.075 A 
ATOM     10  C   UNL d   1      43.349  43.630  38.053  0.00  0.00     0.071 A 
ATOM     11  C   UNL d   1      44.327  43.736  37.712  0.00  0.00     0.074 A 
ENDROOT
BRANCH   4  12
ATOM     12  C   UNL d   1      43.432  39.220  38.384  0.00  0.00     0.001 A 
ATOM     13  C   UNL d   1      43.107  38.638  37.639  0.00  0.00     0.054 A 
ATOM     14  C   UNL d   1      42.743  37.728  37.837  0.00  0.00     0.102 A 
ATOM     15  C   UNL d   1      42.703  37.400  38.780  0.00  0.00     0.099 A 
ATOM     16  C   UNL d   1      43.027  37.982  39.526  0.00  0.00     0.040 A 
ATOM     17  C   UNL d   1      43.392  38.891  39.328  0.00  0.00     0.017 A 
BRANCH  14  18
ATOM     18  O   UNL d   1      42.418  37.146  37.091  0.00  0.00    -0.353 OA
ATOM     19  C   UNL d   1      42.972  37.034  36.266  0.00  0.00     0.210 C 
ENDBRANCH  14  18
BRANCH  15  20
ATOM     20  O   UNL d   1      42.338  36.490  38.978  0.00  0.00    -0.358 OA
ATOM     21  H   UNL d   1      41.800  36.431  39.281  0.00  0.00     0.217 HD
ENDBRANCH  15  20
ENDBRANCH   4  12
BRANCH   8  22
ATOM     22  O   UNL d   1      45.861  42.980  37.253  0.00  0.00    -0.360 OA
ATOM     23  H   UNL d   1      46.303  42.608  37.477  0.00  0.00     0.217 HD
ENDBRANCH   8  22
BRANCH  10  24
ATOM     24  O   UNL d   1      42.771  44.436  38.184  0.00  0.00    -0.361 OA
ATOM     25  H   UNL d   1      42.886  44.827  38.651  0.00  0.00     0.217 HD
ENDBRANCH  10  24
TORSDOF 5
ENDMDL
MODEL 5
REMARK VINA RESULT:    -6.978     14.847     16.324
REMARK INTER + INTRA:          -6.411
REMARK INTER:                  -8.620
REMARK INTRA:                   2.209
REMARK UNBOUND:                 1.995
REMARK  5 active torsions:
REMARK  status: ('A' for Active; 'I' for Inactive)
REMARK    1  A    between atoms: O_2  and  C_13 
REMARK    2  A    between atoms: O_3  and  C_19 
REMARK    3  A    between atoms: O_5  and  C_17 
REMARK    4  A    between atoms: O_6  and  C_21 
REMARK    5  A    between atoms: C_8  and  C_10 
ROOT
ATOM      1  O   UNL d   1      47.041  32.679  25.020  0.00  0.00    -0.309 OA
ATOM      2  O   UNL d   1      49.750  33.919  25.377  0.00  0.00    -0.287 OA
ATOM      3  C   UNL d   1      48.463  33.398  24.341  0.00  0.00     0.081 A 
ATOM      4  C   UNL d   1      47.425  32.786  25.937  0.00  0.00     0.090 A 
ATOM      5  C   UNL d   1      47.560  32.985  24.222  0.00  0.00     0.095 A 
ATOM      6  C   UNL d   1      48.847  33.506  25.258  0.00  0.00     0.190 A 
ATOM      7  C   UNL d   1      48.328  33.200  26.056  0.00  0.00     0.094 A 
ATOM      8  C   UNL d   1      49.015  33.722  23.519  0.00  0.00     0.085 A 
ATOM      9  C   UNL d   1      47.147  32.867  23.273  0.00  0.00     0.075 A 
ATOM     10  C   UNL d   1      47.681  33.183  22.437  0.00  0.00     0.071 A 
ATOM     11  C   UNL d   1      48.621  33.613  22.561  0.00  0.00     0.074 A 
ENDROOT
BRANCH   4  12
ATOM     12  C   UNL d   1      46.906  32.480  26.736  0.00  0.00     0.001 A 
ATOM     13  C   UNL d   1      46.182  31.799  26.630  0.00  0.00     0.054 A 
ATOM     14  C   UNL d   1      45.663  31.493  27.428  0.00  0.00     0.102 A 
ATOM     15  C   UNL d   1      45.868  31.868  28.332  0.00  0.00     0.099 A 
ATOM     16  C   UNL d   1      46.592  32.550  28.437  0.00  0.00     0.040 A 
ATOM     17  C   UNL d   1      47.111  32.856  27.639  0.00  0.00     0.017 A 
BRANCH  14  18
ATOM     18  O   UNL d   1      44.939  30.811  27.322  0.00  0.00    -0.353 OA
ATOM     19  C   UNL d   1      44.581  30.598  26.413  0.00  0.00     0.210 C 
ENDBRANCH  14  18
BRANCH  15  20
ATOM     20  O   UNL d   1      45.349  31.562  29.130  0.00  0.00    -0.358 OA
ATOM     21  H   UNL d   1      45.000  31.051  29.095  0.00  0.00     0.217 HD
ENDBRANCH  15  20
ENDBRANCH   4  12
BRANCH   8  22
ATOM     22  O   UNL d   1      49.917  34.134  23.650  0.00  0.00    -0.360 OA
ATOM     23  H   UNL d   1      50.021  34.501  24.138  0.00  0.00     0.217 HD
ENDBRANCH   8  22
BRANCH  10  24
ATOM     24  O   UNL d   1      47.294  33.074  21.522  0.00  0.00    -0.361 OA
ATOM     25  H   UNL d   1      47.368  32.541  21.215  0.00  0.00     0.217 HD
ENDBRANCH  10  24
TORSDOF 5
ENDMDL
