MODEL 1
REMARK VINA RESULT:    -7.609      0.000      0.000
REMARK INTER + INTRA:          -7.070
REMARK INTER:                  -8.111
REMARK INTRA:                   1.041
REMARK UNBOUND:                 1.429
REMARK  3 active torsions:
REMARK  status: ('A' for Active; 'I' for Inactive)
REMARK    1  A    between atoms: O_2  and  C_10 
REMARK    2  A    between atoms: O_4  and  C_13 
REMARK    3  A    between atoms: C_7  and  C_9 
ROOT
ATOM      1  O   UNL d   1      42.676  39.999  37.710  0.00  0.00    -0.309 OA
ATOM      2  O   UNL d   1      43.799  38.328  39.934  0.00  0.00    -0.287 OA
ATOM      3  C   UNL d   1      42.656  38.545  38.651  0.00  0.00     0.081 A 
ATOM      4  C   UNL d   1      42.282  39.102  37.910  0.00  0.00     0.095 A 
ATOM      5  C   UNL d   1      43.445  40.339  38.252  0.00  0.00     0.090 A 
ATOM      6  C   UNL d   1      43.424  38.885  39.193  0.00  0.00     0.190 A 
ATOM      7  C   UNL d   1      42.255  37.609  38.870  0.00  0.00     0.085 A 
ATOM      8  C   UNL d   1      43.819  39.782  38.993  0.00  0.00     0.094 A 
ATOM      9  C   UNL d   1      41.481  38.761  37.336  0.00  0.00     0.075 A 
ATOM     10  C   UNL d   1      41.065  37.828  37.538  0.00  0.00     0.071 A 
ATOM     11  C   UNL d   1      41.455  37.248  38.310  0.00  0.00     0.074 A 
ENDROOT
BRANCH   5  12
ATOM     12  C   UNL d   1      43.839  41.236  38.052  0.00  0.00    -0.002 A 
ATOM     13  C   UNL d   1      44.748  41.302  37.640  0.00  0.00     0.014 A 
ATOM     14  C   UNL d   1      45.142  42.199  37.441  0.00  0.00     0.001 A 
ATOM     15  C   UNL d   1      44.628  43.030  37.653  0.00  0.00     0.000 A 
ATOM     16  C   UNL d   1      43.719  42.964  38.066  0.00  0.00     0.001 A 
ATOM     17  C   UNL d   1      43.325  42.067  38.265  0.00  0.00     0.014 A 
ENDBRANCH   5  12
BRANCH   7  18
ATOM     18  O   UNL d   1      42.638  37.060  39.614  0.00  0.00    -0.360 OA
ATOM     19  H   UNL d   1      42.319  36.986  40.140  0.00  0.00     0.217 HD
ENDBRANCH   7  18
BRANCH  10  20
ATOM     20  O   UNL d   1      40.296  37.491  36.994  0.00  0.00    -0.361 OA
ATOM     21  H   UNL d   1      40.383  37.033  36.586  0.00  0.00     0.217 HD
ENDBRANCH  10  20
TORSDOF 3
ENDMDL
MODEL 2
REMARK VINA RESULT:    -7.521     19.837     20.975
REMARK INTER + INTRA:          -6.972
REMARK INTER:                  -7.974
REMARK INTRA:                   1.002
REMARK UNBOUND:                 1.429
REMARK  3 active torsions:
REMARK  status: ('A' for Active; 'I' for Inactive)
REMARK    1  A    between atoms: O_2  and  C_10 
REMARK    2  A    between atoms: O_4  and  C_13 
REMARK    3  A    between atoms: C_7  and  C_9 
ROOT
ATOM      1  O   UNL d   1      31.998  36.292  20.815  0.00  0.00    -0.309 OA
ATOM      2  O   UNL d   1      32.833  33.443  21.244  0.00  0.00    -0.287 OA
ATOM      3  C   UNL d   1      31.970  34.849  21.772  0.00  0.00     0.081 A 
ATOM      4  C   UNL d   1      31.691  35.798  21.629  0.00  0.00     0.095 A 
ATOM      5  C   UNL d   1      32.582  35.836  20.144  0.00  0.00     0.090 A 
ATOM      6  C   UNL d   1      32.555  34.392  21.101  0.00  0.00     0.190 A 
ATOM      7  C   UNL d   1      31.659  34.322  22.614  0.00  0.00     0.085 A 
ATOM      8  C   UNL d   1      32.861  34.886  20.287  0.00  0.00     0.094 A 
ATOM      9  C   UNL d   1      31.083  36.287  22.318  0.00  0.00     0.075 A 
ATOM     10  C   UNL d   1      30.760  35.779  23.169  0.00  0.00     0.071 A 
ATOM     11  C   UNL d   1      31.050  34.791  23.318  0.00  0.00     0.074 A 
ENDROOT
BRANCH   5  12
ATOM     12  C   UNL d   1      32.889  36.330  19.330  0.00  0.00    -0.002 A 
ATOM     13  C   UNL d   1      32.387  36.236  18.470  0.00  0.00     0.014 A 
ATOM     14  C   UNL d   1      32.693  36.730  17.656  0.00  0.00     0.001 A 
ATOM     15  C   UNL d   1      33.501  37.317  17.702  0.00  0.00     0.000 A 
ATOM     16  C   UNL d   1      34.003  37.410  18.562  0.00  0.00     0.001 A 
ATOM     17  C   UNL d   1      33.697  36.917  19.376  0.00  0.00     0.014 A 
ENDBRANCH   5  12
BRANCH   7  18
ATOM     18  O   UNL d   1      31.943  33.373  22.747  0.00  0.00    -0.360 OA
ATOM     19  H   UNL d   1      31.888  32.965  22.284  0.00  0.00     0.217 HD
ENDBRANCH   7  18
BRANCH  10  20
ATOM     20  O   UNL d   1      30.175  36.239  23.837  0.00  0.00    -0.361 OA
ATOM     21  H   UNL d   1      29.868  35.907  24.261  0.00  0.00     0.217 HD
ENDBRANCH  10  20
TORSDOF 3
ENDMDL
MODEL 3
REMARK VINA RESULT:    -7.192     32.640     33.658
REMARK INTER + INTRA:          -6.604
REMARK INTER:                  -7.604
REMARK INTRA:                   1.000
REMARK UNBOUND:                 1.429
REMARK  3 active torsions:
REMARK  status: ('A' for Active; 'I' for Inactive)
REMARK    1  A    between atoms: O_2  and  C_10 
REMARK    2  A    between atoms: O_4  and  C_13 
REMARK    3  A    between atoms: C_7  and  C_9 
ROOT
ATOM      1  O   UNL d   1      38.926  46.535   5.506  0.00  0.00    -0.309 OA
ATOM      2  O   UNL d   1      36.538  47.033   7.252  0.00  0.00    -0.287 OA
ATOM      3  C   UNL d   1      37.868  47.637   6.321  0.00  0.00     0.081 A 
ATOM      4  C   UNL d   1      38.664  47.471   5.739  0.00  0.00     0.095 A 
ATOM      5  C   UNL d   1      38.393  45.765   5.855  0.00  0.00     0.090 A 
ATOM      6  C   UNL d   1      37.334  46.867   6.670  0.00  0.00     0.190 A 
ATOM      7  C   UNL d   1      37.582  48.607   6.572  0.00  0.00     0.085 A 
ATOM      8  C   UNL d   1      37.597  45.930   6.437  0.00  0.00     0.094 A 
ATOM      9  C   UNL d   1      39.229  48.264   5.368  0.00  0.00     0.075 A 
ATOM     10  C   UNL d   1      38.962  49.242   5.606  0.00  0.00     0.071 A 
ATOM     11  C   UNL d   1      38.133  49.414   6.212  0.00  0.00     0.074 A 
ENDROOT
BRANCH   5  12
ATOM     12  C   UNL d   1      38.655  44.828   5.621  0.00  0.00    -0.002 A 
ATOM     13  C   UNL d   1      38.318  44.409   4.778  0.00  0.00     0.014 A 
ATOM     14  C   UNL d   1      38.580  43.473   4.545  0.00  0.00     0.001 A 
ATOM     15  C   UNL d   1      39.181  42.956   5.155  0.00  0.00     0.000 A 
ATOM     16  C   UNL d   1      39.518  43.375   5.998  0.00  0.00     0.001 A 
ATOM     17  C   UNL d   1      39.256  44.311   6.231  0.00  0.00     0.014 A 
ENDBRANCH   5  12
BRANCH   7  18
ATOM     18  O   UNL d   1      36.784  48.761   7.155  0.00  0.00    -0.360 OA
ATOM     19  H   UNL d   1      36.641  48.352   7.598  0.00  0.00     0.217 HD
ENDBRANCH   7  18
BRANCH  10  20
ATOM     20  O   UNL d   1      39.498  50.010   5.255  0.00  0.00    -0.361 OA
ATOM     21  H   UNL d   1      39.547  50.530   5.587  0.00  0.00     0.217 HD
ENDBRANCH  10  20
TORSDOF 3
ENDMDL
MODEL 4
REMARK VINA RESULT:    -7.150     22.758     24.442
REMARK INTER + INTRA:          -6.557
REMARK INTER:                  -7.690
REMARK INTRA:                   1.133
REMARK UNBOUND:                 1.429
REMARK  3 active torsions:
REMARK  status: ('A' for Active; 'I' for Inactive)
REMARK    1  A    between atoms: O_2  and  C_10 
REMARK    2  A    between atoms: O_4  and  C_13 
REMARK    3  A    between atoms: C_7  and  C_9 
ROOT
ATOM      1  O   UNL d   1      34.351  38.054  15.425  0.00  0.00    -0.309 OA
ATOM      2  O   UNL d   1      37.291  37.481  15.591  0.00  0.00    -0.287 OA
ATOM      3  C   UNL d   1      35.932  38.108  14.719  0.00  0.00     0.081 A 
ATOM      4  C   UNL d   1      34.952  38.299  14.664  0.00  0.00     0.095 A 
ATOM      5  C   UNL d   1      34.730  37.618  16.241  0.00  0.00     0.090 A 
ATOM      6  C   UNL d   1      36.311  37.672  15.536  0.00  0.00     0.190 A 
ATOM      7  C   UNL d   1      36.570  38.357  13.935  0.00  0.00     0.085 A 
ATOM      8  C   UNL d   1      35.710  37.427  16.296  0.00  0.00     0.094 A 
ATOM      9  C   UNL d   1      34.542  38.753  13.820  0.00  0.00     0.075 A 
ATOM     10  C   UNL d   1      35.162  39.011  13.024  0.00  0.00     0.071 A 
ATOM     11  C   UNL d   1      36.182  38.812  13.081  0.00  0.00     0.074 A 
ENDROOT
BRANCH   5  12
ATOM     12  C   UNL d   1      34.129  37.374  17.002  0.00  0.00    -0.002 A 
ATOM     13  C   UNL d   1      33.336  36.786  16.844  0.00  0.00     0.014 A 
ATOM     14  C   UNL d   1      32.735  36.541  17.605  0.00  0.00     0.001 A 
ATOM     15  C   UNL d   1      32.928  36.884  18.524  0.00  0.00     0.000 A 
ATOM     16  C   UNL d   1      33.721  37.472  18.682  0.00  0.00     0.001 A 
ATOM     17  C   UNL d   1      34.322  37.717  17.921  0.00  0.00     0.014 A 
ENDBRANCH   5  12
BRANCH   7  18
ATOM     18  O   UNL d   1      37.548  38.162  14.001  0.00  0.00    -0.360 OA
ATOM     19  H   UNL d   1      37.750  37.720  14.386  0.00  0.00     0.217 HD
ENDBRANCH   7  18
BRANCH  10  20
ATOM     20  O   UNL d   1      34.778  39.447  12.209  0.00  0.00    -0.361 OA
ATOM     21  H   UNL d   1      34.918  39.228  11.646  0.00  0.00     0.217 HD
ENDBRANCH  10  20
TORSDOF 3
ENDMDL
MODEL 5
REMARK VINA RESULT:    -7.087     17.487     18.240
REMARK INTER + INTRA:          -6.487
REMARK INTER:                  -7.824
REMARK INTRA:                   1.337
REMARK UNBOUND:                 1.429
REMARK  3 active torsions:
REMARK  status: ('A' for Active; 'I' for Inactive)
REMARK    1  A    between atoms: O_2  and  C_10 
REMARK    2  A    between atoms: O_4  and  C_13 
REMARK    3  A    between atoms: C_7  and  C_9 
ROOT
ATOM      1  O   UNL d   1      48.297  32.741  22.624  0.00  0.00    -0.309 OA
ATOM      2  O   UNL d   1      49.626  35.255  21.668  0.00  0.00    -0.287 OA
ATOM      3  C   UNL d   1      48.973  33.685  21.339  0.00  0.00     0.081 A 
ATOM      4  C   UNL d   1      48.531  32.847  21.657  0.00  0.00     0.095 A 
ATOM      5  C   UNL d   1      48.507  33.474  23.272  0.00  0.00     0.090 A 
ATOM      6  C   UNL d   1      49.183  34.417  21.986  0.00  0.00     0.190 A 
ATOM      7  C   UNL d   1      49.222  33.809  20.335  0.00  0.00     0.085 A 
ATOM      8  C   UNL d   1      48.950  34.312  22.953  0.00  0.00     0.094 A 
ATOM      9  C   UNL d   1      48.306  32.075  20.995  0.00  0.00     0.075 A 
ATOM     10  C   UNL d   1      48.546  32.178  19.986  0.00  0.00     0.071 A 
ATOM     11  C   UNL d   1      49.007  33.050  19.654  0.00  0.00     0.074 A 
ENDROOT
BRANCH   5  12
ATOM     12  C   UNL d   1      48.273  33.368  24.238  0.00  0.00    -0.002 A 
ATOM     13  C   UNL d   1      48.796  33.858  24.936  0.00  0.00     0.014 A 
ATOM     14  C   UNL d   1      48.563  33.753  25.902  0.00  0.00     0.001 A 
ATOM     15  C   UNL d   1      47.806  33.157  26.172  0.00  0.00     0.000 A 
ATOM     16  C   UNL d   1      47.283  32.667  25.474  0.00  0.00     0.001 A 
ATOM     17  C   UNL d   1      47.517  32.772  24.508  0.00  0.00     0.014 A 
ENDBRANCH   5  12
BRANCH   7  18
ATOM     18  O   UNL d   1      49.665  34.651  20.027  0.00  0.00    -0.360 OA
ATOM     19  H   UNL d   1      50.270  34.738  20.129  0.00  0.00     0.217 HD
ENDBRANCH   7  18
BRANCH  10  20
ATOM     20  O   UNL d   1      48.335  31.443  19.342  0.00  0.00    -0.361 OA
ATOM     21  H   UNL d   1      48.488  30.858  19.478  0.00  0.00     0.217 HD
ENDBRANCH  10  20
TORSDOF 3
ENDMDL
