MODEL 1
REMARK VINA RESULT:    -7.836      0.000      0.000
REMARK INTER + INTRA:          56.662
REMARK INTER:                 -22.431
REMARK INTRA:                  79.093
REMARK UNBOUND:                79.387
REMARK WARNING: 32 MAX_TORS EXCEEDED!!!
REMARK  47 active torsions:
REMARK  status: ('A' for Active; 'I' for Inactive)
REMARK    1  A    between atoms: C_58  and  O_6 
REMARK    2  A    between atoms: O_6  and  C_80 
REMARK    3  A    between atoms: C_59  and  O_7 
REMARK    4  A    between atoms: C_71  and  O_12 
REMARK    5  A    between atoms: O_12  and  C_90 
REMARK    6  A    between atoms: C_72  and  O_13 
REMARK    7  A    between atoms: O_13  and  C_91 
REMARK    8  A    between atoms: C_74  and  O_15 
REMARK    9  A    between atoms: O_15  and  C_89 
REMARK   10  A    between atoms: O_16  and  C_70 
REMARK   11  A    between atoms: C_77  and  O_18 
REMARK   12  A    between atoms: O_18  and  C_96 
REMARK   13  A    between atoms: O_19  and  C_76 
REMARK   14  A    between atoms: O_21  and  C_79 
REMARK   15  A    between atoms: O_21  and  C_104 
REMARK   16  A    between atoms: O_24  and  C_97 
REMARK   17  A    between atoms: O_24  and  C_105 
REMARK   18  A    between atoms: O_25  and  C_88 
REMARK   19  A    between atoms: O_26  and  C_93 
REMARK   20  A    between atoms: O_30  and  C_94 
REMARK   21  A    between atoms: O_31  and  C_95 
REMARK   22  A    between atoms: O_32  and  C_98 
REMARK   23  A    between atoms: O_35  and  C_107 
REMARK   24  A    between atoms: O_36  and  C_108 
REMARK   25  A    between atoms: O_37  and  C_110 
REMARK   26  A    between atoms: O_38  and  C_111 
REMARK   27  A    between atoms: O_39  and  C_117 
REMARK   28  A    between atoms: O_40  and  C_120 
REMARK   29  A    between atoms: O_41  and  C_121 
REMARK   30  A    between atoms: O_42  and  C_122 
REMARK   31  A    between atoms: O_43  and  C_123 
REMARK   32  A    between atoms: O_44  and  C_124 
REMARK   33  A    between atoms: O_45  and  C_127 
REMARK   34  A    between atoms: O_46  and  C_128 
REMARK   35  A    between atoms: O_47  and  C_129 
REMARK   36  A    between atoms: O_48  and  C_130 
REMARK   37  A    between atoms: O_49  and  C_131 
REMARK   38  A    between atoms: O_50  and  C_132 
REMARK   39  A    between atoms: O_51  and  C_133 
REMARK   40  A    between atoms: O_52  and  C_134 
REMARK   41  A    between atoms: C_75  and  C_79 
REMARK   42  A    between atoms: C_80  and  C_86 
REMARK   43  A    between atoms: C_89  and  C_101 
REMARK   44  A    between atoms: C_90  and  C_102 
REMARK   45  A    between atoms: C_91  and  C_103 
REMARK   46  A    between atoms: C_96  and  C_106 
REMARK   47  A    between atoms: C_104  and  C_112 
ROOT
ATOM      1  C   UNL d   1      29.519  33.109  26.614  0.00  0.00     0.079 A 
ATOM      2  C   UNL d   1      29.860  32.351  26.058  0.00  0.00     0.128 A 
ATOM      3  C   UNL d   1      29.934  33.301  27.503  0.00  0.00     0.060 A 
ATOM      4  C   UNL d   1      30.614  31.786  26.390  0.00  0.00     0.137 A 
ATOM      5  C   UNL d   1      30.689  32.736  27.836  0.00  0.00     0.102 A 
ATOM      6  C   UNL d   1      31.029  31.979  27.279  0.00  0.00     0.135 A 
ENDROOT
BRANCH   2   7
ATOM      7  O   UNL d   1      29.816  31.802  25.222  0.00  0.00    -0.304 OA
BRANCH   7   8
ATOM      8  C   UNL d   1      29.709  31.917  24.235  0.00  0.00     0.113 A 
ATOM      9  C   UNL d   1      30.311  32.592  23.718  0.00  0.00     0.058 A 
ATOM     10  C   UNL d   1      30.191  32.704  22.689  0.00  0.00     0.056 A 
ATOM     11  C   UNL d   1      30.922  33.386  22.693  0.00  0.00     0.294 A 
ATOM     12  C   UNL d   1      29.506  32.172  22.192  0.00  0.00     0.030 A 
ATOM     13  O   UNL d   1      31.503  34.036  22.203  0.00  0.00    -0.315 OA
ATOM     14  O   UNL d   1      31.512  33.785  23.395  0.00  0.00    -0.259 OA
ATOM     15  C   UNL d   1      31.778  34.479  21.350  0.00  0.00     0.213 A 
ATOM     16  C   UNL d   1      31.674  34.597  20.363  0.00  0.00     0.181 A 
ATOM     17  O   UNL d   1      31.929  35.135  18.988  0.00  0.00    -0.348 OA
ATOM     18  C   UNL d   1      31.219  34.359  19.506  0.00  0.00     0.195 A 
ATOM     19  C   UNL d   1      31.118  34.629  17.834  0.00  0.00     0.302 A 
ATOM     20  C   UNL d   1      30.063  33.591  18.071  0.00  0.00     0.220 A 
ATOM     21  O   UNL d   1      30.016  33.778  17.014  0.00  0.00    -0.304 OA
ATOM     22  C   UNL d   1      30.533  33.826  19.008  0.00  0.00     0.198 A 
ATOM     23  C   UNL d   1      30.407  34.326  16.177  0.00  0.00     0.294 A 
ATOM     24  O   UNL d   1      29.894  34.022  15.374  0.00  0.00    -0.259 OA
ATOM     25  C   UNL d   1      31.111  35.059  15.829  0.00  0.00     0.052 A 
ATOM     26  C   UNL d   1      31.901  35.742  16.082  0.00  0.00     0.009 A 
ATOM     27  C   UNL d   1      30.639  34.826  14.878  0.00  0.00     0.057 A 
ATOM     28  C   UNL d   1      32.523  36.155  16.854  0.00  0.00     0.133 A 
ATOM     29  C   UNL d   1      32.177  36.202  15.158  0.00  0.00     0.117 A 
ATOM     30  C   UNL d   1      33.178  36.866  16.401  0.00  0.00     0.250 A 
ATOM     31  C   UNL d   1      32.777  36.165  17.898  0.00  0.00     0.035 A 
ATOM     32  O   UNL d   1      32.965  36.895  15.355  0.00  0.00    -0.302 OA
ATOM     33  C   UNL d   1      33.955  37.502  16.818  0.00  0.00     0.262 A 
ATOM     34  O   UNL d   1      34.486  38.123  16.242  0.00  0.00    -0.283 OA
ATOM     35  C   UNL d   1      34.132  37.433  17.889  0.00  0.00     0.224 A 
ATOM     36  O   UNL d   1      34.832  37.990  18.337  0.00  0.00    -0.284 OA
ATOM     37  C   UNL d   1      33.517  36.736  18.452  0.00  0.00     0.073 A 
ATOM     38  C   UNL d   1      32.582  35.769  18.877  0.00  0.00     0.290 A 
ATOM     39  O   UNL d   1      32.000  35.095  19.477  0.00  0.00    -0.307 OA
ATOM     40  O   UNL d   1      33.217  36.227  19.500  0.00  0.00    -0.260 OA
ATOM     41  C   UNL d   1      31.803  36.073  14.145  0.00  0.00     0.133 A 
ATOM     42  C   UNL d   1      31.000  35.354  14.000  0.00  0.00     0.102 A 
ATOM     43  O   UNL d   1      29.802  33.144  19.003  0.00  0.00    -0.306 OA
ATOM     44  C   UNL d   1      29.221  32.494  19.494  0.00  0.00     0.294 A 
ATOM     45  O   UNL d   1      28.630  32.095  18.792  0.00  0.00    -0.259 OA
ATOM     46  C   UNL d   1      28.945  32.051  20.347  0.00  0.00     0.056 A 
ATOM     47  C   UNL d   1      29.050  31.933  21.334  0.00  0.00     0.030 A 
ATOM     48  C   UNL d   1      28.236  31.504  19.815  0.00  0.00     0.058 A 
ATOM     49  C   UNL d   1      28.452  31.260  21.858  0.00  0.00     0.114 A 
ATOM     50  C   UNL d   1      27.736  30.703  21.347  0.00  0.00     0.133 A 
ATOM     51  C   UNL d   1      27.627  30.825  20.318  0.00  0.00     0.102 A 
ATOM     52  C   UNL d   1      28.893  31.492  22.688  0.00  0.00     0.114 A 
ATOM     53  C   UNL d   1      28.996  31.363  23.717  0.00  0.00     0.134 A 
BRANCH  19  54
ATOM     54  O   UNL d   1      30.898  34.636  16.858  0.00  0.00    -0.283 OA
BRANCH  54  55
ATOM     55  C   UNL d   1      30.053  35.067  16.539  0.00  0.00     0.295 C 
ATOM     56  O   UNL d   1      29.327  35.148  15.858  0.00  0.00    -0.259 OA
BRANCH  55  57
ATOM     57  C   UNL d   1      29.258  35.672  16.517  0.00  0.00     0.045 A 
ATOM     58  C   UNL d   1      29.378  36.661  16.591  0.00  0.00     0.057 A 
ATOM     59  C   UNL d   1      28.583  37.265  16.569  0.00  0.00     0.102 A 
ATOM     60  C   UNL d   1      27.665  36.881  16.471  0.00  0.00     0.132 A 
ATOM     61  C   UNL d   1      27.544  35.890  16.396  0.00  0.00     0.102 A 
ATOM     62  C   UNL d   1      28.340  35.286  16.419  0.00  0.00     0.057 A 
BRANCH  59  63
ATOM     63  O   UNL d   1      28.704  38.255  16.643  0.00  0.00    -0.358 OA
ATOM     64  H   UNL d   1      29.144  38.540  16.313  0.00  0.00     0.217 HD
ENDBRANCH  59  63
BRANCH  60  65
ATOM     65  O   UNL d   1      26.868  37.485  16.448  0.00  0.00    -0.356 OA
ATOM     66  H   UNL d   1      26.414  37.383  16.039  0.00  0.00     0.218 HD
ENDBRANCH  60  65
BRANCH  61  67
ATOM     67  O   UNL d   1      26.626  35.505  16.298  0.00  0.00    -0.358 OA
ATOM     68  H   UNL d   1      26.462  35.224  15.771  0.00  0.00     0.217 HD
ENDBRANCH  61  67
ENDBRANCH  55  57
ENDBRANCH  54  55
ENDBRANCH  19  54
BRANCH  30  69
ATOM     69  O   UNL d   1      33.873  37.558  16.206  0.00  0.00    -0.358 OA
ATOM     70  H   UNL d   1      33.706  38.145  16.102  0.00  0.00     0.213 HD
ENDBRANCH  30  69
BRANCH  41  71
ATOM     71  O   UNL d   1      32.181  36.593  13.380  0.00  0.00    -0.356 OA
ATOM     72  H   UNL d   1      31.863  36.641  12.850  0.00  0.00     0.218 HD
ENDBRANCH  41  71
BRANCH  42  73
ATOM     73  O   UNL d   1      30.610  35.187  13.094  0.00  0.00    -0.358 OA
ATOM     74  H   UNL d   1      30.980  35.159  12.598  0.00  0.00     0.217 HD
ENDBRANCH  42  73
BRANCH  49  75
ATOM     75  O   UNL d   1      28.436  31.033  22.832  0.00  0.00    -0.357 OA
ATOM     76  H   UNL d   1      28.186  31.234  23.363  0.00  0.00     0.217 HD
ENDBRANCH  49  75
BRANCH  50  77
ATOM     77  O   UNL d   1      27.156  30.054  21.840  0.00  0.00    -0.356 OA
ATOM     78  H   UNL d   1      27.278  29.446  21.813  0.00  0.00     0.218 HD
ENDBRANCH  50  77
BRANCH  51  79
ATOM     79  O   UNL d   1      26.943  30.295  19.818  0.00  0.00    -0.358 OA
ATOM     80  H   UNL d   1      27.085  30.048  19.267  0.00  0.00     0.217 HD
ENDBRANCH  51  79
BRANCH  52  81
ATOM     81  O   UNL d   1      28.172  30.895  22.336  0.00  0.00    -0.357 OA
ATOM     82  H   UNL d   1      27.774  30.463  22.534  0.00  0.00     0.217 HD
ENDBRANCH  52  81
BRANCH  53  83
ATOM     83  O   UNL d   1      28.413  30.713  24.203  0.00  0.00    -0.356 OA
ATOM     84  H   UNL d   1      28.548  30.551  24.787  0.00  0.00     0.218 HD
ENDBRANCH  53  83
ENDBRANCH   7   8
ENDBRANCH   2   7
BRANCH   1  85
ATOM     85  C   UNL d   1      28.764  33.674  26.282  0.00  0.00     0.296 C 
ATOM     86  O   UNL d   1      29.237  34.548  26.169  0.00  0.00    -0.259 OA
BRANCH  85  87
ATOM     87  O   UNL d   1      27.791  33.601  26.063  0.00  0.00    -0.304 OA
BRANCH  87  88
ATOM     88  C   UNL d   1      27.163  34.334  26.326  0.00  0.00     0.220 A 
ATOM     89  C   UNL d   1      26.937  35.056  25.672  0.00  0.00     0.198 A 
ATOM     90  C   UNL d   1      26.309  35.789  25.934  0.00  0.00     0.195 A 
ATOM     91  C   UNL d   1      25.907  35.799  26.850  0.00  0.00     0.181 A 
ATOM     92  O   UNL d   1      26.133  35.077  27.503  0.00  0.00    -0.348 OA
ATOM     93  C   UNL d   1      26.761  34.344  27.241  0.00  0.00     0.302 A 
BRANCH  89  94
ATOM     94  O   UNL d   1      27.339  35.045  24.756  0.00  0.00    -0.306 OA
BRANCH  94  95
ATOM     95  C   UNL d   1      26.877  34.562  24.013  0.00  0.00     0.294 C 
ATOM     96  O   UNL d   1      26.195  33.860  24.221  0.00  0.00    -0.259 OA
BRANCH  95  97
ATOM     97  C   UNL d   1      27.096  34.780  23.062  0.00  0.00     0.045 A 
ATOM     98  C   UNL d   1      26.492  34.474  22.327  0.00  0.00     0.057 A 
ATOM     99  C   UNL d   1      26.711  34.691  21.376  0.00  0.00     0.102 A 
ATOM    100  C   UNL d   1      27.535  35.215  21.160  0.00  0.00     0.132 A 
ATOM    101  C   UNL d   1      28.140  35.521  21.896  0.00  0.00     0.102 A 
ATOM    102  C   UNL d   1      27.920  35.303  22.847  0.00  0.00     0.057 A 
BRANCH  99 103
ATOM    103  O   UNL d   1      26.107  34.386  20.640  0.00  0.00    -0.358 OA
ATOM    104  H   UNL d   1      25.856  33.819  20.661  0.00  0.00     0.217 HD
ENDBRANCH  99 103
BRANCH 100 105
ATOM    105  O   UNL d   1      27.755  35.433  20.209  0.00  0.00    -0.356 OA
ATOM    106  H   UNL d   1      28.314  35.294  19.981  0.00  0.00     0.218 HD
ENDBRANCH 100 105
BRANCH 101 107
ATOM    107  O   UNL d   1      28.964  36.045  21.680  0.00  0.00    -0.358 OA
ATOM    108  H   UNL d   1      29.524  35.799  21.785  0.00  0.00     0.217 HD
ENDBRANCH 101 107
ENDBRANCH  95  97
ENDBRANCH  94  95
ENDBRANCH  89  94
BRANCH  90 109
ATOM    109  O   UNL d   1      26.083  36.511  25.281  0.00  0.00    -0.307 OA
BRANCH 109 110
ATOM    110  C   UNL d   1      26.593  37.371  25.290  0.00  0.00     0.294 C 
ATOM    111  O   UNL d   1      27.478  37.423  25.753  0.00  0.00    -0.259 OA
BRANCH 110 112
ATOM    112  C   UNL d   1      26.218  38.180  24.836  0.00  0.00     0.045 A 
ATOM    113  C   UNL d   1      25.679  38.079  24.000  0.00  0.00     0.057 A 
ATOM    114  C   UNL d   1      25.304  38.888  23.547  0.00  0.00     0.102 A 
ATOM    115  C   UNL d   1      25.468  39.797  23.929  0.00  0.00     0.132 A 
ATOM    116  C   UNL d   1      26.008  39.897  24.765  0.00  0.00     0.102 A 
ATOM    117  C   UNL d   1      26.383  39.089  25.219  0.00  0.00     0.057 A 
BRANCH 114 118
ATOM    118  O   UNL d   1      24.764  38.787  22.711  0.00  0.00    -0.358 OA
ATOM    119  H   UNL d   1      24.730  38.236  22.429  0.00  0.00     0.217 HD
ENDBRANCH 114 118
BRANCH 115 120
ATOM    120  O   UNL d   1      25.094  40.605  23.476  0.00  0.00    -0.356 OA
ATOM    121  H   UNL d   1      24.747  40.542  22.966  0.00  0.00     0.218 HD
ENDBRANCH 115 120
BRANCH 116 122
ATOM    122  O   UNL d   1      26.172  40.807  25.148  0.00  0.00    -0.358 OA
ATOM    123  H   UNL d   1      26.741  40.965  25.337  0.00  0.00     0.217 HD
ENDBRANCH 116 122
ENDBRANCH 110 112
ENDBRANCH 109 110
ENDBRANCH  90 109
BRANCH  91 124
ATOM    124  C   UNL d   1      25.280  36.532  27.112  0.00  0.00     0.213 C 
BRANCH 124 125
ATOM    125  O   UNL d   1      25.135  36.745  28.078  0.00  0.00    -0.315 OA
BRANCH 125 126
ATOM    126  C   UNL d   1      24.708  37.610  28.341  0.00  0.00     0.293 C 
ATOM    127  O   UNL d   1      23.978  37.999  27.779  0.00  0.00    -0.259 OA
BRANCH 126 128
ATOM    128  C   UNL d   1      25.010  38.087  29.167  0.00  0.00     0.045 A 
ATOM    129  C   UNL d   1      25.289  39.046  29.117  0.00  0.00     0.057 A 
ATOM    130  C   UNL d   1      25.591  39.522  29.943  0.00  0.00     0.102 A 
ATOM    131  C   UNL d   1      25.614  39.039  30.818  0.00  0.00     0.132 A 
ATOM    132  C   UNL d   1      25.335  38.080  30.868  0.00  0.00     0.102 A 
ATOM    133  C   UNL d   1      25.033  37.604  30.043  0.00  0.00     0.057 A 
BRANCH 130 134
ATOM    134  O   UNL d   1      25.870  40.481  29.893  0.00  0.00    -0.358 OA
ATOM    135  H   UNL d   1      25.463  40.929  30.028  0.00  0.00     0.217 HD
ENDBRANCH 130 134
BRANCH 131 136
ATOM    136  O   UNL d   1      25.916  39.516  31.644  0.00  0.00    -0.356 OA
ATOM    137  H   UNL d   1      26.248  39.214  32.072  0.00  0.00     0.218 HD
ENDBRANCH 131 136
BRANCH 132 138
ATOM    138  O   UNL d   1      25.358  37.598  31.744  0.00  0.00    -0.358 OA
ATOM    139  H   UNL d   1      25.314  36.980  31.758  0.00  0.00     0.217 HD
ENDBRANCH 132 138
ENDBRANCH 126 128
ENDBRANCH 125 126
ENDBRANCH 124 125
ENDBRANCH  91 124
BRANCH  93 140
ATOM    140  O   UNL d   1      26.987  33.622  27.895  0.00  0.00    -0.283 OA
BRANCH 140 141
ATOM    141  C   UNL d   1      26.424  33.492  28.711  0.00  0.00     0.295 C 
ATOM    142  O   UNL d   1      25.457  33.257  28.620  0.00  0.00    -0.259 OA
BRANCH 141 143
ATOM    143  C   UNL d   1      26.829  33.598  29.619  0.00  0.00     0.045 A 
ATOM    144  C   UNL d   1      27.682  33.128  29.845  0.00  0.00     0.057 A 
ATOM    145  C   UNL d   1      28.087  33.234  30.753  0.00  0.00     0.102 A 
ATOM    146  C   UNL d   1      27.639  33.810  31.436  0.00  0.00     0.132 A 
ATOM    147  C   UNL d   1      26.786  34.281  31.211  0.00  0.00     0.102 A 
ATOM    148  C   UNL d   1      26.381  34.175  30.302  0.00  0.00     0.057 A 
BRANCH 145 149
ATOM    149  O   UNL d   1      28.940  32.763  30.978  0.00  0.00    -0.358 OA
ATOM    150  H   UNL d   1      29.162  32.325  30.599  0.00  0.00     0.217 HD
ENDBRANCH 145 149
BRANCH 146 151
ATOM    151  O   UNL d   1      28.044  33.917  32.344  0.00  0.00    -0.356 OA
ATOM    152  H   UNL d   1      28.535  34.287  32.423  0.00  0.00     0.218 HD
ENDBRANCH 146 151
BRANCH 147 153
ATOM    153  O   UNL d   1      26.338  34.858  31.894  0.00  0.00    -0.358 OA
ATOM    154  H   UNL d   1      25.737  34.999  31.834  0.00  0.00     0.217 HD
ENDBRANCH 147 153
ENDBRANCH 141 143
ENDBRANCH 140 141
ENDBRANCH  93 140
ENDBRANCH  87  88
ENDBRANCH  85  87
ENDBRANCH   1  85
BRANCH   4 155
ATOM    155  O   UNL d   1      30.954  31.028  25.833  0.00  0.00    -0.356 OA
ATOM    156  H   UNL d   1      30.754  31.315  25.320  0.00  0.00     0.218 HD
ENDBRANCH   4 155
BRANCH   6 157
ATOM    157  O   UNL d   1      31.785  31.414  27.612  0.00  0.00    -0.356 OA
ATOM    158  H   UNL d   1      32.258  31.676  27.913  0.00  0.00     0.218 HD
ENDBRANCH   6 157
BRANCH   5 159
ATOM    159  O   UNL d   1      31.105  32.929  28.725  0.00  0.00    -0.358 OA
ATOM    160  H   UNL d   1      31.583  32.587  28.924  0.00  0.00     0.217 HD
ENDBRANCH   5 159
TORSDOF 47
ENDMDL
MODEL 2
REMARK VINA RESULT:    -7.643      8.146     17.559
REMARK INTER + INTRA:          57.223
REMARK INTER:                 -21.522
REMARK INTRA:                  78.745
REMARK UNBOUND:                79.387
REMARK WARNING: 32 MAX_TORS EXCEEDED!!!
REMARK  47 active torsions:
REMARK  status: ('A' for Active; 'I' for Inactive)
REMARK    1  A    between atoms: C_58  and  O_6 
REMARK    2  A    between atoms: O_6  and  C_80 
REMARK    3  A    between atoms: C_59  and  O_7 
REMARK    4  A    between atoms: C_71  and  O_12 
REMARK    5  A    between atoms: O_12  and  C_90 
REMARK    6  A    between atoms: C_72  and  O_13 
REMARK    7  A    between atoms: O_13  and  C_91 
REMARK    8  A    between atoms: C_74  and  O_15 
REMARK    9  A    between atoms: O_15  and  C_89 
REMARK   10  A    between atoms: O_16  and  C_70 
REMARK   11  A    between atoms: C_77  and  O_18 
REMARK   12  A    between atoms: O_18  and  C_96 
REMARK   13  A    between atoms: O_19  and  C_76 
REMARK   14  A    between atoms: O_21  and  C_79 
REMARK   15  A    between atoms: O_21  and  C_104 
REMARK   16  A    between atoms: O_24  and  C_97 
REMARK   17  A    between atoms: O_24  and  C_105 
REMARK   18  A    between atoms: O_25  and  C_88 
REMARK   19  A    between atoms: O_26  and  C_93 
REMARK   20  A    between atoms: O_30  and  C_94 
REMARK   21  A    between atoms: O_31  and  C_95 
REMARK   22  A    between atoms: O_32  and  C_98 
REMARK   23  A    between atoms: O_35  and  C_107 
REMARK   24  A    between atoms: O_36  and  C_108 
REMARK   25  A    between atoms: O_37  and  C_110 
REMARK   26  A    between atoms: O_38  and  C_111 
REMARK   27  A    between atoms: O_39  and  C_117 
REMARK   28  A    between atoms: O_40  and  C_120 
REMARK   29  A    between atoms: O_41  and  C_121 
REMARK   30  A    between atoms: O_42  and  C_122 
REMARK   31  A    between atoms: O_43  and  C_123 
REMARK   32  A    between atoms: O_44  and  C_124 
REMARK   33  A    between atoms: O_45  and  C_127 
REMARK   34  A    between atoms: O_46  and  C_128 
REMARK   35  A    between atoms: O_47  and  C_129 
REMARK   36  A    between atoms: O_48  and  C_130 
REMARK   37  A    between atoms: O_49  and  C_131 
REMARK   38  A    between atoms: O_50  and  C_132 
REMARK   39  A    between atoms: O_51  and  C_133 
REMARK   40  A    between atoms: O_52  and  C_134 
REMARK   41  A    between atoms: C_75  and  C_79 
REMARK   42  A    between atoms: C_80  and  C_86 
REMARK   43  A    between atoms: C_89  and  C_101 
REMARK   44  A    between atoms: C_90  and  C_102 
REMARK   45  A    between atoms: C_91  and  C_103 
REMARK   46  A    between atoms: C_96  and  C_106 
REMARK   47  A    between atoms: C_104  and  C_112 
ROOT
ATOM      1  C   UNL d   1      40.240  40.018  10.037  0.00  0.00     0.079 A 
ATOM      2  C   UNL d   1      39.289  40.178   9.771  0.00  0.00     0.128 A 
ATOM      3  C   UNL d   1      40.880  40.785  10.085  0.00  0.00     0.060 A 
ATOM      4  C   UNL d   1      38.979  41.103   9.553  0.00  0.00     0.137 A 
ATOM      5  C   UNL d   1      40.570  41.710   9.866  0.00  0.00     0.102 A 
ATOM      6  C   UNL d   1      39.620  41.868   9.601  0.00  0.00     0.135 A 
ENDROOT
BRANCH   2   7
ATOM      7  O   UNL d   1      38.370  39.827   9.590  0.00  0.00    -0.304 OA
BRANCH   7   8
ATOM      8  C   UNL d   1      37.737  39.128   9.925  0.00  0.00     0.113 A 
ATOM      9  C   UNL d   1      37.433  39.131  10.921  0.00  0.00     0.058 A 
ATOM     10  C   UNL d   1      36.773  38.399  11.259  0.00  0.00     0.056 A 
ATOM     11  C   UNL d   1      36.806  38.811  12.169  0.00  0.00     0.294 A 
ATOM     12  C   UNL d   1      36.429  37.694  10.640  0.00  0.00     0.030 A 
ATOM     13  O   UNL d   1      36.518  38.820  13.127  0.00  0.00    -0.315 OA
ATOM     14  O   UNL d   1      37.277  39.596  12.574  0.00  0.00    -0.259 OA
ATOM     15  C   UNL d   1      35.987  38.423  13.875  0.00  0.00     0.213 A 
ATOM     16  C   UNL d   1      35.354  37.726  14.214  0.00  0.00     0.181 A 
ATOM     17  O   UNL d   1      34.490  36.981  15.184  0.00  0.00    -0.348 OA
ATOM     18  C   UNL d   1      34.790  36.918  14.052  0.00  0.00     0.195 A 
ATOM     19  C   UNL d   1      33.722  35.781  14.719  0.00  0.00     0.302 A 
ATOM     20  C   UNL d   1      33.830  35.343  13.290  0.00  0.00     0.220 A 
ATOM     21  O   UNL d   1      33.155  34.633  13.732  0.00  0.00    -0.304 OA
ATOM     22  C   UNL d   1      34.445  36.212  13.432  0.00  0.00     0.198 A 
ATOM     23  C   UNL d   1      32.638  34.312  14.618  0.00  0.00     0.294 A 
ATOM     24  O   UNL d   1      32.107  33.506  14.358  0.00  0.00    -0.259 OA
ATOM     25  C   UNL d   1      32.446  34.481  15.661  0.00  0.00     0.052 A 
ATOM     26  C   UNL d   1      32.639  35.087  16.527  0.00  0.00     0.009 A 
ATOM     27  C   UNL d   1      31.821  33.603  15.523  0.00  0.00     0.057 A 
ATOM     28  C   UNL d   1      33.156  35.934  16.937  0.00  0.00     0.133 A 
ATOM     29  C   UNL d   1      32.063  34.645  17.310  0.00  0.00     0.117 A 
ATOM     30  C   UNL d   1      32.895  36.009  17.970  0.00  0.00     0.250 A 
ATOM     31  C   UNL d   1      33.831  36.751  16.759  0.00  0.00     0.035 A 
ATOM     32  O   UNL d   1      32.221  35.213  18.199  0.00  0.00    -0.302 OA
ATOM     33  C   UNL d   1      33.192  36.714  18.742  0.00  0.00     0.262 A 
ATOM     34  O   UNL d   1      32.848  36.638  19.677  0.00  0.00    -0.283 OA
ATOM     35  C   UNL d   1      33.881  37.505  18.455  0.00  0.00     0.224 A 
ATOM     36  O   UNL d   1      34.195  38.186  19.116  0.00  0.00    -0.284 OA
ATOM     37  C   UNL d   1      34.214  37.524  17.420  0.00  0.00     0.073 A 
ATOM     38  C   UNL d   1      34.446  37.275  16.051  0.00  0.00     0.290 A 
ATOM     39  O   UNL d   1      34.804  37.337  15.040  0.00  0.00    -0.307 OA
ATOM     40  O   UNL d   1      34.868  38.033  16.549  0.00  0.00    -0.260 OA
ATOM     41  C   UNL d   1      31.403  33.781  17.323  0.00  0.00     0.133 A 
ATOM     42  C   UNL d   1      31.277  33.237  16.390  0.00  0.00     0.102 A 
ATOM     43  O   UNL d   1      34.412  35.799  12.521  0.00  0.00    -0.306 OA
ATOM     44  C   UNL d   1      34.700  35.791  11.564  0.00  0.00     0.294 A 
ATOM     45  O   UNL d   1      34.229  35.007  11.159  0.00  0.00    -0.259 OA
ATOM     46  C   UNL d   1      35.232  36.188  10.816  0.00  0.00     0.056 A 
ATOM     47  C   UNL d   1      35.864  36.884  10.477  0.00  0.00     0.030 A 
ATOM     48  C   UNL d   1      34.864  35.447  10.183  0.00  0.00     0.058 A 
ATOM     49  C   UNL d   1      36.173  36.888   9.483  0.00  0.00     0.114 A 
ATOM     50  C   UNL d   1      35.818  36.157   8.831  0.00  0.00     0.133 A 
ATOM     51  C   UNL d   1      35.159  35.431   9.184  0.00  0.00     0.102 A 
ATOM     52  C   UNL d   1      36.719  37.671   9.640  0.00  0.00     0.114 A 
ATOM     53  C   UNL d   1      37.378  38.394   9.280  0.00  0.00     0.134 A 
BRANCH  19  54
ATOM     54  O   UNL d   1      33.092  35.027  14.906  0.00  0.00    -0.283 OA
BRANCH  54  55
ATOM     55  C   UNL d   1      32.146  35.075  14.587  0.00  0.00     0.295 C 
ATOM     56  O   UNL d   1      31.288  34.619  14.349  0.00  0.00    -0.259 OA
BRANCH  55  57
ATOM     57  C   UNL d   1      31.283  35.459  14.260  0.00  0.00     0.045 A 
ATOM     58  C   UNL d   1      30.789  35.016  13.512  0.00  0.00     0.057 A 
ATOM     59  C   UNL d   1      29.926  35.400  13.185  0.00  0.00     0.102 A 
ATOM     60  C   UNL d   1      29.556  36.229  13.606  0.00  0.00     0.132 A 
ATOM     61  C   UNL d   1      30.050  36.673  14.355  0.00  0.00     0.102 A 
ATOM     62  C   UNL d   1      30.914  36.288  14.681  0.00  0.00     0.057 A 
BRANCH  59  63
ATOM     63  O   UNL d   1      29.432  34.957  12.438  0.00  0.00    -0.358 OA
ATOM     64  H   UNL d   1      29.002  34.528  12.560  0.00  0.00     0.217 HD
ENDBRANCH  59  63
BRANCH  60  65
ATOM     65  O   UNL d   1      28.693  36.614  13.280  0.00  0.00    -0.356 OA
ATOM     66  H   UNL d   1      28.154  36.389  13.489  0.00  0.00     0.218 HD
ENDBRANCH  60  65
BRANCH  61  67
ATOM     67  O   UNL d   1      29.680  37.501  14.776  0.00  0.00    -0.358 OA
ATOM     68  H   UNL d   1      29.293  37.457  15.258  0.00  0.00     0.217 HD
ENDBRANCH  61  67
ENDBRANCH  55  57
ENDBRANCH  54  55
ENDBRANCH  19  54
BRANCH  30  69
ATOM     69  O   UNL d   1      32.799  36.272  18.929  0.00  0.00    -0.358 OA
ATOM     70  H   UNL d   1      32.444  36.755  19.085  0.00  0.00     0.213 HD
ENDBRANCH  30  69
BRANCH  41  71
ATOM     71  O   UNL d   1      30.932  33.498  18.158  0.00  0.00    -0.356 OA
ATOM     72  H   UNL d   1      30.492  33.061  18.134  0.00  0.00     0.218 HD
ENDBRANCH  41  71
BRANCH  42  73
ATOM     73  O   UNL d   1      30.685  32.433  16.332  0.00  0.00    -0.358 OA
ATOM     74  H   UNL d   1      30.526  32.128  16.847  0.00  0.00     0.217 HD
ENDBRANCH  42  73
BRANCH  49  75
ATOM     75  O   UNL d   1      36.792  37.508   9.001  0.00  0.00    -0.357 OA
ATOM     76  H   UNL d   1      36.903  38.116   8.938  0.00  0.00     0.217 HD
ENDBRANCH  49  75
BRANCH  50  77
ATOM     77  O   UNL d   1      36.108  36.151   7.875  0.00  0.00    -0.356 OA
ATOM     78  H   UNL d   1      35.898  36.584   7.484  0.00  0.00     0.218 HD
ENDBRANCH  50  77
BRANCH  51  79
ATOM     79  O   UNL d   1      34.813  34.724   8.568  0.00  0.00    -0.358 OA
ATOM     80  H   UNL d   1      34.529  34.886   8.040  0.00  0.00     0.217 HD
ENDBRANCH  51  79
BRANCH  52  81
ATOM     81  O   UNL d   1      36.466  37.040   8.907  0.00  0.00    -0.357 OA
ATOM     82  H   UNL d   1      35.984  36.907   8.540  0.00  0.00     0.217 HD
ENDBRANCH  52  81
BRANCH  53  83
ATOM     83  O   UNL d   1      37.664  38.382   8.322  0.00  0.00    -0.356 OA
ATOM     84  H   UNL d   1      37.244  38.456   7.872  0.00  0.00     0.218 HD
ENDBRANCH  53  83
ENDBRANCH   7   8
ENDBRANCH   2   7
BRANCH   1  85
ATOM     85  C   UNL d   1      40.550  39.093  10.255  0.00  0.00     0.296 C 
ATOM     86  O   UNL d   1      40.855  39.230  11.198  0.00  0.00    -0.259 OA
BRANCH  85  87
ATOM     87  O   UNL d   1      40.624  38.190   9.832  0.00  0.00    -0.304 OA
BRANCH  87  88
ATOM     88  C   UNL d   1      41.263  37.515  10.202  0.00  0.00     0.220 A 
ATOM     89  C   UNL d   1      42.203  37.478   9.865  0.00  0.00     0.198 A 
ATOM     90  C   UNL d   1      42.841  36.803  10.235  0.00  0.00     0.195 A 
ATOM     91  C   UNL d   1      42.539  36.165  10.943  0.00  0.00     0.181 A 
ATOM     92  O   UNL d   1      41.598  36.201  11.280  0.00  0.00    -0.348 OA
ATOM     93  C   UNL d   1      40.960  36.876  10.910  0.00  0.00     0.302 A 
BRANCH  89  94
ATOM     94  O   UNL d   1      42.506  38.117   9.157  0.00  0.00    -0.306 OA
BRANCH  94  95
ATOM     95  C   UNL d   1      42.373  37.893   8.192  0.00  0.00     0.294 C 
ATOM     96  O   UNL d   1      42.113  36.965   7.925  0.00  0.00    -0.259 OA
BRANCH  95  97
ATOM     97  C   UNL d   1      42.501  38.596   7.493  0.00  0.00     0.045 A 
ATOM     98  C   UNL d   1      43.237  39.267   7.587  0.00  0.00     0.057 A 
ATOM     99  C   UNL d   1      43.366  39.970   6.888  0.00  0.00     0.102 A 
ATOM    100  C   UNL d   1      42.757  40.004   6.095  0.00  0.00     0.132 A 
ATOM    101  C   UNL d   1      42.021  39.334   6.001  0.00  0.00     0.102 A 
ATOM    102  C   UNL d   1      41.893  38.630   6.700  0.00  0.00     0.057 A 
BRANCH  99 103
ATOM    103  O   UNL d   1      44.102  40.640   6.983  0.00  0.00    -0.358 OA
ATOM    104  H   UNL d   1      44.012  41.227   6.803  0.00  0.00     0.217 HD
ENDBRANCH  99 103
BRANCH 100 105
ATOM    105  O   UNL d   1      42.886  40.707   5.396  0.00  0.00    -0.356 OA
ATOM    106  H   UNL d   1      43.445  40.961   5.310  0.00  0.00     0.218 HD
ENDBRANCH 100 105
BRANCH 101 107
ATOM    107  O   UNL d   1      41.413  39.367   5.208  0.00  0.00    -0.358 OA
ATOM    108  H   UNL d   1      41.501  39.795   4.768  0.00  0.00     0.217 HD
ENDBRANCH 101 107
ENDBRANCH  95  97
ENDBRANCH  94  95
ENDBRANCH  89  94
BRANCH  90 109
ATOM    109  O   UNL d   1      43.782  36.767   9.898  0.00  0.00    -0.307 OA
BRANCH 109 110
ATOM    110  C   UNL d   1      44.495  37.306  10.346  0.00  0.00     0.294 C 
ATOM    111  O   UNL d   1      44.245  38.021  10.998  0.00  0.00    -0.259 OA
BRANCH 110 112
ATOM    112  C   UNL d   1      45.458  37.129  10.142  0.00  0.00     0.045 A 
ATOM    113  C   UNL d   1      45.762  37.052   9.192  0.00  0.00     0.057 A 
ATOM    114  C   UNL d   1      46.724  36.876   8.988  0.00  0.00     0.102 A 
ATOM    115  C   UNL d   1      47.384  36.776   9.733  0.00  0.00     0.132 A 
ATOM    116  C   UNL d   1      47.080  36.853  10.683  0.00  0.00     0.102 A 
ATOM    117  C   UNL d   1      46.117  37.030  10.887  0.00  0.00     0.057 A 
BRANCH 114 118
ATOM    118  O   UNL d   1      47.028  36.799   8.038  0.00  0.00    -0.358 OA
ATOM    119  H   UNL d   1      46.928  36.275   7.722  0.00  0.00     0.217 HD
ENDBRANCH 114 118
BRANCH 115 120
ATOM    120  O   UNL d   1      48.346  36.600   9.529  0.00  0.00    -0.356 OA
ATOM    121  H   UNL d   1      48.774  36.661   9.974  0.00  0.00     0.218 HD
ENDBRANCH 115 120
BRANCH 116 122
ATOM    122  O   UNL d   1      47.739  36.754  11.428  0.00  0.00    -0.358 OA
ATOM    123  H   UNL d   1      47.903  37.248  11.765  0.00  0.00     0.217 HD
ENDBRANCH 116 122
ENDBRANCH 110 112
ENDBRANCH 109 110
ENDBRANCH  90 109
BRANCH  91 124
ATOM    124  C   UNL d   1      43.177  35.490  11.313  0.00  0.00     0.213 C 
BRANCH 124 125
ATOM    125  O   UNL d   1      42.908  34.922  12.091  0.00  0.00    -0.315 OA
BRANCH 125 126
ATOM    126  C   UNL d   1      43.292  34.004  12.196  0.00  0.00     0.293 C 
ATOM    127  O   UNL d   1      44.120  33.748  11.698  0.00  0.00    -0.259 OA
BRANCH 126 128
ATOM    128  C   UNL d   1      42.847  33.343  12.800  0.00  0.00     0.045 A 
ATOM    129  C   UNL d   1      41.855  33.369  12.927  0.00  0.00     0.057 A 
ATOM    130  C   UNL d   1      41.410  32.708  13.530  0.00  0.00     0.102 A 
ATOM    131  C   UNL d   1      41.956  32.019  14.006  0.00  0.00     0.132 A 
ATOM    132  C   UNL d   1      42.948  31.992  13.880  0.00  0.00     0.102 A 
ATOM    133  C   UNL d   1      43.393  32.654  13.276  0.00  0.00     0.057 A 
BRANCH 130 134
ATOM    134  O   UNL d   1      40.418  32.735  13.657  0.00  0.00    -0.358 OA
ATOM    135  H   UNL d   1      40.181  32.880  14.211  0.00  0.00     0.217 HD
ENDBRANCH 130 134
BRANCH 131 136
ATOM    136  O   UNL d   1      41.511  31.357  14.610  0.00  0.00    -0.356 OA
ATOM    137  H   UNL d   1      41.537  31.433  15.225  0.00  0.00     0.218 HD
ENDBRANCH 131 136
BRANCH 132 138
ATOM    138  O   UNL d   1      43.495  31.304  14.356  0.00  0.00    -0.358 OA
ATOM    139  H   UNL d   1      43.792  30.866  14.033  0.00  0.00     0.217 HD
ENDBRANCH 132 138
ENDBRANCH 126 128
ENDBRANCH 125 126
ENDBRANCH 124 125
ENDBRANCH  91 124
BRANCH  93 140
ATOM    140  O   UNL d   1      40.019  36.913  11.247  0.00  0.00    -0.283 OA
BRANCH 140 141
ATOM    141  C   UNL d   1      39.518  36.066  11.423  0.00  0.00     0.295 C 
ATOM    142  O   UNL d   1      39.440  35.373  10.706  0.00  0.00    -0.259 OA
BRANCH 141 143
ATOM    143  C   UNL d   1      39.095  35.911  12.316  0.00  0.00     0.045 A 
ATOM    144  C   UNL d   1      38.384  35.216  12.418  0.00  0.00     0.057 A 
ATOM    145  C   UNL d   1      37.960  35.061  13.311  0.00  0.00     0.102 A 
ATOM    146  C   UNL d   1      38.248  35.602  14.101  0.00  0.00     0.132 A 
ATOM    147  C   UNL d   1      38.959  36.298  13.999  0.00  0.00     0.102 A 
ATOM    148  C   UNL d   1      39.382  36.452  13.106  0.00  0.00     0.057 A 
BRANCH 145 149
ATOM    149  O   UNL d   1      37.249  34.365  13.413  0.00  0.00    -0.358 OA
ATOM    150  H   UNL d   1      36.808  34.307  12.982  0.00  0.00     0.217 HD
ENDBRANCH 145 149
BRANCH 146 151
ATOM    151  O   UNL d   1      37.824  35.448  14.994  0.00  0.00    -0.356 OA
ATOM    152  H   UNL d   1      37.209  35.494  15.057  0.00  0.00     0.218 HD
ENDBRANCH 146 151
BRANCH 147 153
ATOM    153  O   UNL d   1      39.246  36.839  14.789  0.00  0.00    -0.358 OA
ATOM    154  H   UNL d   1      39.007  37.403  14.882  0.00  0.00     0.217 HD
ENDBRANCH 147 153
ENDBRANCH 141 143
ENDBRANCH 140 141
ENDBRANCH  93 140
ENDBRANCH  87  88
ENDBRANCH  85  87
ENDBRANCH   1  85
BRANCH   4 155
ATOM    155  O   UNL d   1      38.028  41.261   9.287  0.00  0.00    -0.356 OA
ATOM    156  H   UNL d   1      38.089  41.862   9.428  0.00  0.00     0.218 HD
ENDBRANCH   4 155
BRANCH   6 157
ATOM    157  O   UNL d   1      39.310  42.795   9.382  0.00  0.00    -0.356 OA
ATOM    158  H   UNL d   1      39.512  43.276   9.716  0.00  0.00     0.218 HD
ENDBRANCH   6 157
BRANCH   5 159
ATOM    159  O   UNL d   1      41.211  42.477   9.914  0.00  0.00    -0.358 OA
ATOM    160  H   UNL d   1      41.348  42.797   9.401  0.00  0.00     0.217 HD
ENDBRANCH   5 159
TORSDOF 47
ENDMDL
MODEL 3
REMARK VINA RESULT:    -7.555     14.824     23.295
REMARK INTER + INTRA:          57.478
REMARK INTER:                 -23.433
REMARK INTRA:                  80.911
REMARK UNBOUND:                79.387
REMARK WARNING: 32 MAX_TORS EXCEEDED!!!
REMARK  47 active torsions:
REMARK  status: ('A' for Active; 'I' for Inactive)
REMARK    1  A    between atoms: C_58  and  O_6 
REMARK    2  A    between atoms: O_6  and  C_80 
REMARK    3  A    between atoms: C_59  and  O_7 
REMARK    4  A    between atoms: C_71  and  O_12 
REMARK    5  A    between atoms: O_12  and  C_90 
REMARK    6  A    between atoms: C_72  and  O_13 
REMARK    7  A    between atoms: O_13  and  C_91 
REMARK    8  A    between atoms: C_74  and  O_15 
REMARK    9  A    between atoms: O_15  and  C_89 
REMARK   10  A    between atoms: O_16  and  C_70 
REMARK   11  A    between atoms: C_77  and  O_18 
REMARK   12  A    between atoms: O_18  and  C_96 
REMARK   13  A    between atoms: O_19  and  C_76 
REMARK   14  A    between atoms: O_21  and  C_79 
REMARK   15  A    between atoms: O_21  and  C_104 
REMARK   16  A    between atoms: O_24  and  C_97 
REMARK   17  A    between atoms: O_24  and  C_105 
REMARK   18  A    between atoms: O_25  and  C_88 
REMARK   19  A    between atoms: O_26  and  C_93 
REMARK   20  A    between atoms: O_30  and  C_94 
REMARK   21  A    between atoms: O_31  and  C_95 
REMARK   22  A    between atoms: O_32  and  C_98 
REMARK   23  A    between atoms: O_35  and  C_107 
REMARK   24  A    between atoms: O_36  and  C_108 
REMARK   25  A    between atoms: O_37  and  C_110 
REMARK   26  A    between atoms: O_38  and  C_111 
REMARK   27  A    between atoms: O_39  and  C_117 
REMARK   28  A    between atoms: O_40  and  C_120 
REMARK   29  A    between atoms: O_41  and  C_121 
REMARK   30  A    between atoms: O_42  and  C_122 
REMARK   31  A    between atoms: O_43  and  C_123 
REMARK   32  A    between atoms: O_44  and  C_124 
REMARK   33  A    between atoms: O_45  and  C_127 
REMARK   34  A    between atoms: O_46  and  C_128 
REMARK   35  A    between atoms: O_47  and  C_129 
REMARK   36  A    between atoms: O_48  and  C_130 
REMARK   37  A    between atoms: O_49  and  C_131 
REMARK   38  A    between atoms: O_50  and  C_132 
REMARK   39  A    between atoms: O_51  and  C_133 
REMARK   40  A    between atoms: O_52  and  C_134 
REMARK   41  A    between atoms: C_75  and  C_79 
REMARK   42  A    between atoms: C_80  and  C_86 
REMARK   43  A    between atoms: C_89  and  C_101 
REMARK   44  A    between atoms: C_90  and  C_102 
REMARK   45  A    between atoms: C_91  and  C_103 
REMARK   46  A    between atoms: C_96  and  C_106 
REMARK   47  A    between atoms: C_104  and  C_112 
ROOT
ATOM      1  C   UNL d   1      39.883  40.791   9.527  0.00  0.00     0.079 A 
ATOM      2  C   UNL d   1      40.257  41.689   9.295  0.00  0.00     0.128 A 
ATOM      3  C   UNL d   1      38.910  40.694   9.737  0.00  0.00     0.060 A 
ATOM      4  C   UNL d   1      39.658  42.489   9.273  0.00  0.00     0.137 A 
ATOM      5  C   UNL d   1      38.311  41.494   9.715  0.00  0.00     0.102 A 
ATOM      6  C   UNL d   1      38.685  42.391   9.483  0.00  0.00     0.135 A 
ENDROOT
BRANCH   2   7
ATOM      7  O   UNL d   1      41.034  42.264   9.040  0.00  0.00    -0.304 OA
BRANCH   7   8
ATOM      8  C   UNL d   1      41.754  42.316   8.347  0.00  0.00     0.113 A 
ATOM      9  C   UNL d   1      41.538  42.100   7.351  0.00  0.00     0.058 A 
ATOM     10  C   UNL d   1      42.296  42.158   6.637  0.00  0.00     0.056 A 
ATOM     11  C   UNL d   1      41.635  41.888   5.937  0.00  0.00     0.294 A 
ATOM     12  C   UNL d   1      43.226  42.416   6.897  0.00  0.00     0.030 A 
ATOM     13  O   UNL d   1      41.421  41.680   4.982  0.00  0.00    -0.315 OA
ATOM     14  O   UNL d   1      40.661  41.661   5.934  0.00  0.00    -0.259 OA
ATOM     15  C   UNL d   1      41.712  41.589   4.030  0.00  0.00     0.213 A 
ATOM     16  C   UNL d   1      42.428  41.639   3.334  0.00  0.00     0.181 A 
ATOM     17  O   UNL d   1      43.066  41.563   1.981  0.00  0.00    -0.348 OA
ATOM     18  C   UNL d   1      43.378  41.818   3.083  0.00  0.00     0.195 A 
ATOM     19  C   UNL d   1      44.524  41.876   1.832  0.00  0.00     0.302 A 
ATOM     20  C   UNL d   1      45.323  42.262   3.039  0.00  0.00     0.220 A 
ATOM     21  O   UNL d   1      46.033  42.293   2.233  0.00  0.00    -0.304 OA
ATOM     22  C   UNL d   1      44.310  42.077   3.342  0.00  0.00     0.198 A 
ATOM     23  C   UNL d   1      46.209  42.159   1.181  0.00  0.00     0.294 A 
ATOM     24  O   UNL d   1      47.176  42.358   1.028  0.00  0.00    -0.259 OA
ATOM     25  C   UNL d   1      45.795  41.904   0.223  0.00  0.00     0.052 A 
ATOM     26  C   UNL d   1      44.924  41.609  -0.333  0.00  0.00     0.009 A 
ATOM     27  C   UNL d   1      46.819  42.089  -0.089  0.00  0.00     0.057 A 
ATOM     28  C   UNL d   1      43.878  41.370  -0.311  0.00  0.00     0.133 A 
ATOM     29  C   UNL d   1      45.259  41.519  -1.344  0.00  0.00     0.117 A 
ATOM     30  C   UNL d   1      43.574  41.134  -1.306  0.00  0.00     0.250 A 
ATOM     31  C   UNL d   1      42.991  41.263   0.286  0.00  0.00     0.035 A 
ATOM     32  O   UNL d   1      44.426  41.226  -1.944  0.00  0.00    -0.302 OA
ATOM     33  C   UNL d   1      42.611  40.842  -1.719  0.00  0.00     0.262 A 
ATOM     34  O   UNL d   1      42.497  40.654  -2.694  0.00  0.00    -0.283 OA
ATOM     35  C   UNL d   1      41.777  40.764  -1.026  0.00  0.00     0.224 A 
ATOM     36  O   UNL d   1      40.864  40.500  -1.339  0.00  0.00    -0.284 OA
ATOM     37  C   UNL d   1      41.975  40.983   0.020  0.00  0.00     0.073 A 
ATOM     38  C   UNL d   1      42.548  41.323   1.263  0.00  0.00     0.290 A 
ATOM     39  O   UNL d   1      42.694  41.530   2.307  0.00  0.00    -0.307 OA
ATOM     40  O   UNL d   1      41.584  41.081   1.153  0.00  0.00    -0.260 OA
ATOM     41  C   UNL d   1      46.234  41.669  -1.800  0.00  0.00     0.133 A 
ATOM     42  C   UNL d   1      47.049  41.967  -1.144  0.00  0.00     0.102 A 
ATOM     43  O   UNL d   1      44.971  42.347   4.042  0.00  0.00    -0.306 OA
ATOM     44  C   UNL d   1      45.184  42.555   4.997  0.00  0.00     0.294 A 
ATOM     45  O   UNL d   1      46.158  42.782   5.000  0.00  0.00    -0.259 OA
ATOM     46  C   UNL d   1      44.894  42.646   5.949  0.00  0.00     0.056 A 
ATOM     47  C   UNL d   1      44.177  42.595   6.645  0.00  0.00     0.030 A 
ATOM     48  C   UNL d   1      45.868  42.914   6.204  0.00  0.00     0.058 A 
ATOM     49  C   UNL d   1      44.385  42.809   7.643  0.00  0.00     0.114 A 
ATOM     50  C   UNL d   1      45.351  43.080   7.920  0.00  0.00     0.133 A 
ATOM     51  C   UNL d   1      46.098  43.133   7.195  0.00  0.00     0.102 A 
ATOM     52  C   UNL d   1      43.464  42.636   7.886  0.00  0.00     0.114 A 
ATOM     53  C   UNL d   1      42.723  42.585   8.617  0.00  0.00     0.134 A 
BRANCH  19  54
ATOM     54  O   UNL d   1      45.337  41.970   1.258  0.00  0.00    -0.283 OA
BRANCH  54  55
ATOM     55  C   UNL d   1      45.698  42.878   1.046  0.00  0.00     0.295 C 
ATOM     56  O   UNL d   1      46.452  43.462   0.748  0.00  0.00    -0.259 OA
BRANCH  55  57
ATOM     57  C   UNL d   1      45.734  43.869   0.924  0.00  0.00     0.045 A 
ATOM     58  C   UNL d   1      46.277  44.431   1.547  0.00  0.00     0.057 A 
ATOM     59  C   UNL d   1      46.313  45.423   1.425  0.00  0.00     0.102 A 
ATOM     60  C   UNL d   1      45.806  45.853   0.679  0.00  0.00     0.132 A 
ATOM     61  C   UNL d   1      45.262  45.292   0.054  0.00  0.00     0.102 A 
ATOM     62  C   UNL d   1      45.226  44.300   0.177  0.00  0.00     0.057 A 
BRANCH  59  63
ATOM     63  O   UNL d   1      46.856  45.984   2.049  0.00  0.00    -0.358 OA
ATOM     64  H   UNL d   1      46.582  46.280   2.519  0.00  0.00     0.217 HD
ENDBRANCH  59  63
BRANCH  60  65
ATOM     65  O   UNL d   1      45.841  46.845   0.556  0.00  0.00    -0.356 OA
ATOM     66  H   UNL d   1      46.351  47.160   0.718  0.00  0.00     0.218 HD
ENDBRANCH  60  65
BRANCH  61  67
ATOM     67  O   UNL d   1      44.755  45.722  -0.692  0.00  0.00    -0.358 OA
ATOM     68  H   UNL d   1      44.696  45.430  -1.236  0.00  0.00     0.217 HD
ENDBRANCH  61  67
ENDBRANCH  55  57
ENDBRANCH  54  55
ENDBRANCH  19  54
BRANCH  30  69
ATOM     69  O   UNL d   1      43.071  40.880  -2.133  0.00  0.00    -0.358 OA
ATOM     70  H   UNL d   1      43.082  40.295  -2.335  0.00  0.00     0.213 HD
ENDBRANCH  30  69
BRANCH  41  71
ATOM     71  O   UNL d   1      46.376  41.540  -2.780  0.00  0.00    -0.356 OA
ATOM     72  H   UNL d   1      46.568  40.990  -2.997  0.00  0.00     0.218 HD
ENDBRANCH  41  71
BRANCH  42  73
ATOM     73  O   UNL d   1      47.971  42.123  -1.498  0.00  0.00    -0.358 OA
ATOM     74  H   UNL d   1      48.137  41.885  -2.045  0.00  0.00     0.217 HD
ENDBRANCH  42  73
BRANCH  49  75
ATOM     75  O   UNL d   1      43.785  42.803   8.442  0.00  0.00    -0.357 OA
ATOM     76  H   UNL d   1      43.222  42.998   8.617  0.00  0.00     0.217 HD
ENDBRANCH  49  75
BRANCH  50  77
ATOM     77  O   UNL d   1      45.562  43.287   8.875  0.00  0.00    -0.356 OA
ATOM     78  H   UNL d   1      46.098  43.099   9.123  0.00  0.00     0.218 HD
ENDBRANCH  50  77
BRANCH  51  79
ATOM     79  O   UNL d   1      47.029  43.391   7.451  0.00  0.00    -0.358 OA
ATOM     80  H   UNL d   1      47.127  43.901   7.790  0.00  0.00     0.217 HD
ENDBRANCH  51  79
BRANCH  52  81
ATOM     81  O   UNL d   1      44.335  42.906   8.296  0.00  0.00    -0.357 OA
ATOM     82  H   UNL d   1      44.658  43.418   8.432  0.00  0.00     0.217 HD
ENDBRANCH  52  81
BRANCH  53  83
ATOM     83  O   UNL d   1      42.940  42.794   9.570  0.00  0.00    -0.356 OA
ATOM     84  H   UNL d   1      43.526  42.756   9.770  0.00  0.00     0.218 HD
ENDBRANCH  53  83
ENDBRANCH   7   8
ENDBRANCH   2   7
BRANCH   1  85
ATOM     85  C   UNL d   1      40.482  39.990   9.549  0.00  0.00     0.296 C 
ATOM     86  O   UNL d   1      41.060  40.227  10.330  0.00  0.00    -0.259 OA
BRANCH  85  87
ATOM     87  O   UNL d   1      40.632  39.132   9.058  0.00  0.00    -0.304 OA
BRANCH  87  88
ATOM     88  C   UNL d   1      41.213  38.423   9.457  0.00  0.00     0.220 A 
ATOM     89  C   UNL d   1      40.826  37.764  10.102  0.00  0.00     0.198 A 
ATOM     90  C   UNL d   1      41.408  37.054  10.501  0.00  0.00     0.195 A 
ATOM     91  C   UNL d   1      42.376  37.004  10.255  0.00  0.00     0.181 A 
ATOM     92  O   UNL d   1      42.762  37.663   9.610  0.00  0.00    -0.348 OA
ATOM     93  C   UNL d   1      42.181  38.373   9.211  0.00  0.00     0.302 A 
BRANCH  89  94
ATOM     94  O   UNL d   1      39.859  37.814  10.349  0.00  0.00    -0.306 OA
BRANCH  94  95
ATOM     95  C   UNL d   1      39.181  37.305   9.818  0.00  0.00     0.294 C 
ATOM     96  O   UNL d   1      39.478  36.623   9.150  0.00  0.00    -0.259 OA
BRANCH  95  97
ATOM     97  C   UNL d   1      38.205  37.480   9.954  0.00  0.00     0.045 A 
ATOM     98  C   UNL d   1      37.583  37.477   9.172  0.00  0.00     0.057 A 
ATOM     99  C   UNL d   1      36.607  37.652   9.309  0.00  0.00     0.102 A 
ATOM    100  C   UNL d   1      36.255  37.828  10.228  0.00  0.00     0.132 A 
ATOM    101  C   UNL d   1      36.878  37.830  11.010  0.00  0.00     0.102 A 
ATOM    102  C   UNL d   1      37.853  37.656  10.873  0.00  0.00     0.057 A 
BRANCH  99 103
ATOM    103  O   UNL d   1      35.985  37.650   8.526  0.00  0.00    -0.358 OA
ATOM    104  H   UNL d   1      35.546  38.085   8.478  0.00  0.00     0.217 HD
ENDBRANCH  99 103
BRANCH 100 105
ATOM    105  O   UNL d   1      35.280  38.003  10.364  0.00  0.00    -0.356 OA
ATOM    106  H   UNL d   1      35.073  38.585  10.413  0.00  0.00     0.218 HD
ENDBRANCH 100 105
BRANCH 101 107
ATOM    107  O   UNL d   1      36.525  38.007  11.929  0.00  0.00    -0.358 OA
ATOM    108  H   UNL d   1      35.919  38.101  12.016  0.00  0.00     0.217 HD
ENDBRANCH 101 107
ENDBRANCH  95  97
ENDBRANCH  94  95
ENDBRANCH  89  94
BRANCH  90 109
ATOM    109  O   UNL d   1      41.021  36.395  11.146  0.00  0.00    -0.307 OA
BRANCH 109 110
ATOM    110  C   UNL d   1      41.126  36.539  12.130  0.00  0.00     0.294 C 
ATOM    111  O   UNL d   1      41.945  36.989  12.486  0.00  0.00    -0.259 OA
BRANCH 110 112
ATOM    112  C   UNL d   1      40.411  36.232  12.759  0.00  0.00     0.045 A 
ATOM    113  C   UNL d   1      40.012  35.321  12.656  0.00  0.00     0.057 A 
ATOM    114  C   UNL d   1      39.297  35.014  13.285  0.00  0.00     0.102 A 
ATOM    115  C   UNL d   1      38.981  35.619  14.016  0.00  0.00     0.132 A 
ATOM    116  C   UNL d   1      39.380  36.530  14.119  0.00  0.00     0.102 A 
ATOM    117  C   UNL d   1      40.095  36.837  13.490  0.00  0.00     0.057 A 
BRANCH 114 118
ATOM    118  O   UNL d   1      38.899  34.103  13.182  0.00  0.00    -0.358 OA
ATOM    119  H   UNL d   1      39.033  33.760  12.683  0.00  0.00     0.217 HD
ENDBRANCH 114 118
BRANCH 115 120
ATOM    120  O   UNL d   1      38.267  35.312  14.645  0.00  0.00    -0.356 OA
ATOM    121  H   UNL d   1      37.837  34.909  14.452  0.00  0.00     0.218 HD
ENDBRANCH 115 120
BRANCH 116 122
ATOM    122  O   UNL d   1      39.064  37.135  14.850  0.00  0.00    -0.358 OA
ATOM    123  H   UNL d   1      38.472  37.318  14.866  0.00  0.00     0.217 HD
ENDBRANCH 116 122
ENDBRANCH 110 112
ENDBRANCH 109 110
ENDBRANCH  90 109
BRANCH  91 124
ATOM    124  C   UNL d   1      42.957  36.295  10.654  0.00  0.00     0.213 C 
BRANCH 124 125
ATOM    125  O   UNL d   1      43.697  35.894  10.114  0.00  0.00    -0.315 OA
BRANCH 125 126
ATOM    126  C   UNL d   1      44.572  35.679  10.548  0.00  0.00     0.293 C 
ATOM    127  O   UNL d   1      44.594  35.137  11.389  0.00  0.00    -0.259 OA
BRANCH 126 128
ATOM    128  C   UNL d   1      45.425  36.005  10.142  0.00  0.00     0.045 A 
ATOM    129  C   UNL d   1      46.025  36.615  10.660  0.00  0.00     0.057 A 
ATOM    130  C   UNL d   1      46.878  36.942  10.254  0.00  0.00     0.102 A 
ATOM    131  C   UNL d   1      47.132  36.659   9.329  0.00  0.00     0.132 A 
ATOM    132  C   UNL d   1      46.532  36.049   8.810  0.00  0.00     0.102 A 
ATOM    133  C   UNL d   1      45.679  35.722   9.217  0.00  0.00     0.057 A 
BRANCH 130 134
ATOM    134  O   UNL d   1      47.478  37.551  10.772  0.00  0.00    -0.358 OA
ATOM    135  H   UNL d   1      47.452  37.559  11.391  0.00  0.00     0.217 HD
ENDBRANCH 130 134
BRANCH 131 136
ATOM    136  O   UNL d   1      47.985  36.985   8.922  0.00  0.00    -0.356 OA
ATOM    137  H   UNL d   1      48.524  36.888   9.212  0.00  0.00     0.218 HD
ENDBRANCH 131 136
BRANCH 132 138
ATOM    138  O   UNL d   1      46.786  35.766   7.885  0.00  0.00    -0.358 OA
ATOM    139  H   UNL d   1      46.913  35.171   7.767  0.00  0.00     0.217 HD
ENDBRANCH 132 138
ENDBRANCH 126 128
ENDBRANCH 125 126
ENDBRANCH 124 125
ENDBRANCH  91 124
BRANCH  93 140
ATOM    140  O   UNL d   1      42.567  39.032   8.566  0.00  0.00    -0.283 OA
BRANCH 140 141
ATOM    141  C   UNL d   1      43.109  38.712   7.789  0.00  0.00     0.295 C 
ATOM    142  O   UNL d   1      42.688  38.134   7.090  0.00  0.00    -0.259 OA
BRANCH 141 143
ATOM    143  C   UNL d   1      44.072  38.970   7.710  0.00  0.00     0.045 A 
ATOM    144  C   UNL d   1      44.551  38.855   6.840  0.00  0.00     0.057 A 
ATOM    145  C   UNL d   1      45.514  39.113   6.762  0.00  0.00     0.102 A 
ATOM    146  C   UNL d   1      45.998  39.485   7.554  0.00  0.00     0.132 A 
ATOM    147  C   UNL d   1      45.519  39.600   8.424  0.00  0.00     0.102 A 
ATOM    148  C   UNL d   1      44.556  39.342   8.502  0.00  0.00     0.057 A 
BRANCH 145 149
ATOM    149  O   UNL d   1      45.993  38.998   5.892  0.00  0.00    -0.358 OA
ATOM    150  H   UNL d   1      45.800  38.571   5.485  0.00  0.00     0.217 HD
ENDBRANCH 145 149
BRANCH 146 151
ATOM    151  O   UNL d   1      46.961  39.743   7.475  0.00  0.00    -0.356 OA
ATOM    152  H   UNL d   1      47.286  39.887   7.983  0.00  0.00     0.218 HD
ENDBRANCH 146 151
BRANCH 147 153
ATOM    153  O   UNL d   1      46.003  39.973   9.215  0.00  0.00    -0.358 OA
ATOM    154  H   UNL d   1      46.483  39.665   9.458  0.00  0.00     0.217 HD
ENDBRANCH 147 153
ENDBRANCH 141 143
ENDBRANCH 140 141
ENDBRANCH  93 140
ENDBRANCH  87  88
ENDBRANCH  85  87
ENDBRANCH   1  85
BRANCH   4 155
ATOM    155  O   UNL d   1      40.032  43.387   9.041  0.00  0.00    -0.356 OA
ATOM    156  H   UNL d   1      39.915  43.585   9.617  0.00  0.00     0.218 HD
ENDBRANCH   4 155
BRANCH   6 157
ATOM    157  O   UNL d   1      38.086  43.192   9.462  0.00  0.00    -0.356 OA
ATOM    158  H   UNL d   1      38.111  43.611   9.918  0.00  0.00     0.218 HD
ENDBRANCH   6 157
BRANCH   5 159
ATOM    159  O   UNL d   1      37.338  41.397   9.926  0.00  0.00    -0.358 OA
ATOM    160  H   UNL d   1      37.098  41.687  10.418  0.00  0.00     0.217 HD
ENDBRANCH   5 159
TORSDOF 47
ENDMDL
MODEL 4
REMARK VINA RESULT:    -7.294      8.664     18.406
REMARK INTER + INTRA:          58.234
REMARK INTER:                 -21.430
REMARK INTRA:                  79.664
REMARK UNBOUND:                79.387
REMARK WARNING: 32 MAX_TORS EXCEEDED!!!
REMARK  47 active torsions:
REMARK  status: ('A' for Active; 'I' for Inactive)
REMARK    1  A    between atoms: C_58  and  O_6 
REMARK    2  A    between atoms: O_6  and  C_80 
REMARK    3  A    between atoms: C_59  and  O_7 
REMARK    4  A    between atoms: C_71  and  O_12 
REMARK    5  A    between atoms: O_12  and  C_90 
REMARK    6  A    between atoms: C_72  and  O_13 
REMARK    7  A    between atoms: O_13  and  C_91 
REMARK    8  A    between atoms: C_74  and  O_15 
REMARK    9  A    between atoms: O_15  and  C_89 
REMARK   10  A    between atoms: O_16  and  C_70 
REMARK   11  A    between atoms: C_77  and  O_18 
REMARK   12  A    between atoms: O_18  and  C_96 
REMARK   13  A    between atoms: O_19  and  C_76 
REMARK   14  A    between atoms: O_21  and  C_79 
REMARK   15  A    between atoms: O_21  and  C_104 
REMARK   16  A    between atoms: O_24  and  C_97 
REMARK   17  A    between atoms: O_24  and  C_105 
REMARK   18  A    between atoms: O_25  and  C_88 
REMARK   19  A    between atoms: O_26  and  C_93 
REMARK   20  A    between atoms: O_30  and  C_94 
REMARK   21  A    between atoms: O_31  and  C_95 
REMARK   22  A    between atoms: O_32  and  C_98 
REMARK   23  A    between atoms: O_35  and  C_107 
REMARK   24  A    between atoms: O_36  and  C_108 
REMARK   25  A    between atoms: O_37  and  C_110 
REMARK   26  A    between atoms: O_38  and  C_111 
REMARK   27  A    between atoms: O_39  and  C_117 
REMARK   28  A    between atoms: O_40  and  C_120 
REMARK   29  A    between atoms: O_41  and  C_121 
REMARK   30  A    between atoms: O_42  and  C_122 
REMARK   31  A    between atoms: O_43  and  C_123 
REMARK   32  A    between atoms: O_44  and  C_124 
REMARK   33  A    between atoms: O_45  and  C_127 
REMARK   34  A    between atoms: O_46  and  C_128 
REMARK   35  A    between atoms: O_47  and  C_129 
REMARK   36  A    between atoms: O_48  and  C_130 
REMARK   37  A    between atoms: O_49  and  C_131 
REMARK   38  A    between atoms: O_50  and  C_132 
REMARK   39  A    between atoms: O_51  and  C_133 
REMARK   40  A    between atoms: O_52  and  C_134 
REMARK   41  A    between atoms: C_75  and  C_79 
REMARK   42  A    between atoms: C_80  and  C_86 
REMARK   43  A    between atoms: C_89  and  C_101 
REMARK   44  A    between atoms: C_90  and  C_102 
REMARK   45  A    between atoms: C_91  and  C_103 
REMARK   46  A    between atoms: C_96  and  C_106 
REMARK   47  A    between atoms: C_104  and  C_112 
ROOT
ATOM      1  C   UNL d   1      40.354  40.420   9.510  0.00  0.00     0.079 A 
ATOM      2  C   UNL d   1      40.523  39.533   9.942  0.00  0.00     0.128 A 
ATOM      3  C   UNL d   1      40.993  41.176   9.656  0.00  0.00     0.060 A 
ATOM      4  C   UNL d   1      41.329  39.403  10.518  0.00  0.00     0.137 A 
ATOM      5  C   UNL d   1      41.799  41.045  10.233  0.00  0.00     0.102 A 
ATOM      6  C   UNL d   1      41.967  40.159  10.664  0.00  0.00     0.135 A 
ENDROOT
BRANCH   2   7
ATOM      7  O   UNL d   1      40.251  38.585  10.106  0.00  0.00    -0.304 OA
BRANCH   7   8
ATOM      8  C   UNL d   1      39.435  38.048  10.322  0.00  0.00     0.113 A 
ATOM      9  C   UNL d   1      38.979  38.141  11.253  0.00  0.00     0.058 A 
ATOM     10  C   UNL d   1      38.129  37.577  11.467  0.00  0.00     0.056 A 
ATOM     11  C   UNL d   1      38.100  37.994  12.376  0.00  0.00     0.294 A 
ATOM     12  C   UNL d   1      37.747  36.948  10.790  0.00  0.00     0.030 A 
ATOM     13  O   UNL d   1      37.666  38.087  13.272  0.00  0.00    -0.315 OA
ATOM     14  O   UNL d   1      38.656  38.667  12.863  0.00  0.00    -0.259 OA
ATOM     15  C   UNL d   1      36.945  37.833  13.916  0.00  0.00     0.213 A 
ATOM     16  C   UNL d   1      36.129  37.298  14.135  0.00  0.00     0.181 A 
ATOM     17  O   UNL d   1      34.976  36.780  14.939  0.00  0.00    -0.348 OA
ATOM     18  C   UNL d   1      35.438  36.627  13.872  0.00  0.00     0.195 A 
ATOM     19  C   UNL d   1      34.053  35.764  14.337  0.00  0.00     0.302 A 
ATOM     20  C   UNL d   1      34.298  35.279  12.940  0.00  0.00     0.220 A 
ATOM     21  O   UNL d   1      33.421  34.743  13.255  0.00  0.00    -0.304 OA
ATOM     22  C   UNL d   1      35.055  35.997  13.194  0.00  0.00     0.198 A 
ATOM     23  C   UNL d   1      32.708  34.562  14.038  0.00  0.00     0.294 A 
ATOM     24  O   UNL d   1      32.064  33.884  13.683  0.00  0.00    -0.259 OA
ATOM     25  C   UNL d   1      32.387  34.793  15.036  0.00  0.00     0.052 A 
ATOM     26  C   UNL d   1      32.562  35.364  15.930  0.00  0.00     0.009 A 
ATOM     27  C   UNL d   1      31.619  34.068  14.786  0.00  0.00     0.057 A 
ATOM     28  C   UNL d   1      33.175  36.089  16.432  0.00  0.00     0.133 A 
ATOM     29  C   UNL d   1      31.782  35.075  16.600  0.00  0.00     0.117 A 
ATOM     30  C   UNL d   1      32.769  36.243  17.407  0.00  0.00     0.250 A 
ATOM     31  C   UNL d   1      34.031  36.736  16.379  0.00  0.00     0.035 A 
ATOM     32  O   UNL d   1      31.910  35.618  17.511  0.00  0.00    -0.302 OA
ATOM     33  C   UNL d   1      33.081  36.885  18.227  0.00  0.00     0.262 A 
ATOM     34  O   UNL d   1      32.578  36.908  19.091  0.00  0.00    -0.283 OA
ATOM     35  C   UNL d   1      33.963  37.501  18.069  0.00  0.00     0.224 A 
ATOM     36  O   UNL d   1      34.303  38.114  18.782  0.00  0.00    -0.284 OA
ATOM     37  C   UNL d   1      34.459  37.423  17.104  0.00  0.00     0.073 A 
ATOM     38  C   UNL d   1      34.854  37.097  15.790  0.00  0.00     0.290 A 
ATOM     39  O   UNL d   1      35.379  37.056  14.854  0.00  0.00    -0.307 OA
ATOM     40  O   UNL d   1      35.343  37.758  16.361  0.00  0.00    -0.260 OA
ATOM     41  C   UNL d   1      30.957  34.375  16.492  0.00  0.00     0.133 A 
ATOM     42  C   UNL d   1      30.872  33.849  15.545  0.00  0.00     0.102 A 
ATOM     43  O   UNL d   1      35.084  35.580  12.285  0.00  0.00    -0.306 OA
ATOM     44  C   UNL d   1      35.518  35.486  11.389  0.00  0.00     0.294 A 
ATOM     45  O   UNL d   1      34.961  34.813  10.902  0.00  0.00    -0.259 OA
ATOM     46  C   UNL d   1      36.239  35.741  10.745  0.00  0.00     0.056 A 
ATOM     47  C   UNL d   1      37.055  36.276  10.526  0.00  0.00     0.030 A 
ATOM     48  C   UNL d   1      35.829  35.082  10.050  0.00  0.00     0.058 A 
ATOM     49  C   UNL d   1      37.517  36.189   9.596  0.00  0.00     0.114 A 
ATOM     50  C   UNL d   1      37.125  35.537   8.886  0.00  0.00     0.133 A 
ATOM     51  C   UNL d   1      36.274  34.979   9.115  0.00  0.00     0.102 A 
ATOM     52  C   UNL d   1      38.187  36.839   9.853  0.00  0.00     0.114 A 
ATOM     53  C   UNL d   1      39.037  37.394   9.617  0.00  0.00     0.134 A 
BRANCH  19  54
ATOM     54  O   UNL d   1      33.252  35.169  14.407  0.00  0.00    -0.283 OA
BRANCH  54  55
ATOM     55  C   UNL d   1      32.414  35.398  13.913  0.00  0.00     0.295 C 
ATOM     56  O   UNL d   1      31.535  35.122  13.524  0.00  0.00    -0.259 OA
BRANCH  55  57
ATOM     57  C   UNL d   1      31.731  35.937  13.421  0.00  0.00     0.045 A 
ATOM     58  C   UNL d   1      31.328  35.585  12.577  0.00  0.00     0.057 A 
ATOM     59  C   UNL d   1      30.645  36.124  12.085  0.00  0.00     0.102 A 
ATOM     60  C   UNL d   1      30.363  37.017  12.438  0.00  0.00     0.132 A 
ATOM     61  C   UNL d   1      30.766  37.370  13.284  0.00  0.00     0.102 A 
ATOM     62  C   UNL d   1      31.450  36.829  13.775  0.00  0.00     0.057 A 
BRANCH  59  63
ATOM     63  O   UNL d   1      30.243  35.772  11.241  0.00  0.00    -0.358 OA
ATOM     64  H   UNL d   1      29.874  35.274  11.256  0.00  0.00     0.217 HD
ENDBRANCH  59  63
BRANCH  60  65
ATOM     65  O   UNL d   1      29.680  37.557  11.947  0.00  0.00    -0.356 OA
ATOM     66  H   UNL d   1      29.174  37.282  11.718  0.00  0.00     0.218 HD
ENDBRANCH  60  65
BRANCH  61  67
ATOM     67  O   UNL d   1      30.485  38.262  13.637  0.00  0.00    -0.358 OA
ATOM     68  H   UNL d   1      30.721  38.780  13.392  0.00  0.00     0.217 HD
ENDBRANCH  61  67
ENDBRANCH  55  57
ENDBRANCH  54  55
ENDBRANCH  19  54
BRANCH  30  69
ATOM     69  O   UNL d   1      32.576  36.543  18.341  0.00  0.00    -0.358 OA
ATOM     70  H   UNL d   1      32.773  36.206  18.822  0.00  0.00     0.213 HD
ENDBRANCH  30  69
BRANCH  41  71
ATOM     71  O   UNL d   1      30.304  34.221  17.233  0.00  0.00    -0.356 OA
ATOM     72  H   UNL d   1      30.333  34.565  17.749  0.00  0.00     0.218 HD
ENDBRANCH  41  71
BRANCH  42  73
ATOM     73  O   UNL d   1      30.137  33.191  15.379  0.00  0.00    -0.358 OA
ATOM     74  H   UNL d   1      29.586  33.269  15.650  0.00  0.00     0.217 HD
ENDBRANCH  42  73
BRANCH  49  75
ATOM     75  O   UNL d   1      38.327  36.649   9.233  0.00  0.00    -0.357 OA
ATOM     76  H   UNL d   1      38.945  36.640   9.289  0.00  0.00     0.217 HD
ENDBRANCH  49  75
BRANCH  50  77
ATOM     77  O   UNL d   1      37.561  35.445   7.991  0.00  0.00    -0.356 OA
ATOM     78  H   UNL d   1      37.574  34.894   7.707  0.00  0.00     0.218 HD
ENDBRANCH  50  77
BRANCH  51  79
ATOM     79  O   UNL d   1      35.890  34.350   8.440  0.00  0.00    -0.358 OA
ATOM     80  H   UNL d   1      35.694  33.789   8.617  0.00  0.00     0.217 HD
ENDBRANCH  51  79
BRANCH  52  81
ATOM     81  O   UNL d   1      37.927  36.261   9.080  0.00  0.00    -0.357 OA
ATOM     82  H   UNL d   1      37.431  35.965   8.853  0.00  0.00     0.217 HD
ENDBRANCH  52  81
BRANCH  53  83
ATOM     83  O   UNL d   1      39.468  37.297   8.719  0.00  0.00    -0.356 OA
ATOM     84  H   UNL d   1      39.202  37.549   8.219  0.00  0.00     0.218 HD
ENDBRANCH  53  83
ENDBRANCH   7   8
ENDBRANCH   2   7
BRANCH   1  85
ATOM     85  C   UNL d   1      39.548  40.551   8.934  0.00  0.00     0.296 C 
ATOM     86  O   UNL d   1      39.154  41.362   9.366  0.00  0.00    -0.259 OA
BRANCH  85  87
ATOM     87  O   UNL d   1      39.096  40.136   8.144  0.00  0.00    -0.304 OA
BRANCH  87  88
ATOM     88  C   UNL d   1      38.677  40.717   7.446  0.00  0.00     0.220 A 
ATOM     89  C   UNL d   1      37.692  40.885   7.460  0.00  0.00     0.198 A 
ATOM     90  C   UNL d   1      37.273  41.466   6.762  0.00  0.00     0.195 A 
ATOM     91  C   UNL d   1      37.840  41.879   6.049  0.00  0.00     0.181 A 
ATOM     92  O   UNL d   1      38.826  41.711   6.035  0.00  0.00    -0.348 OA
ATOM     93  C   UNL d   1      39.244  41.130   6.733  0.00  0.00     0.302 A 
BRANCH  89  94
ATOM     94  O   UNL d   1      37.125  40.473   8.173  0.00  0.00    -0.306 OA
BRANCH  94  95
ATOM     95  C   UNL d   1      36.722  39.569   8.031  0.00  0.00     0.294 C 
ATOM     96  O   UNL d   1      37.088  38.964   7.324  0.00  0.00    -0.259 OA
BRANCH  95  97
ATOM     97  C   UNL d   1      35.953  39.269   8.595  0.00  0.00     0.045 A 
ATOM     98  C   UNL d   1      35.263  38.653   8.215  0.00  0.00     0.057 A 
ATOM     99  C   UNL d   1      34.494  38.354   8.780  0.00  0.00     0.102 A 
ATOM    100  C   UNL d   1      34.415  38.670   9.725  0.00  0.00     0.132 A 
ATOM    101  C   UNL d   1      35.104  39.286  10.105  0.00  0.00     0.102 A 
ATOM    102  C   UNL d   1      35.873  39.586   9.541  0.00  0.00     0.057 A 
BRANCH  99 103
ATOM    103  O   UNL d   1      33.804  37.738   8.399  0.00  0.00    -0.358 OA
ATOM    104  H   UNL d   1      33.853  37.542   7.813  0.00  0.00     0.217 HD
ENDBRANCH  99 103
BRANCH 100 105
ATOM    105  O   UNL d   1      33.645  38.371  10.289  0.00  0.00    -0.356 OA
ATOM    106  H   UNL d   1      33.128  38.160  10.021  0.00  0.00     0.218 HD
ENDBRANCH 100 105
BRANCH 101 107
ATOM    107  O   UNL d   1      35.025  39.603  11.051  0.00  0.00    -0.358 OA
ATOM    108  H   UNL d   1      35.218  39.242  11.516  0.00  0.00     0.217 HD
ENDBRANCH 101 107
ENDBRANCH  95  97
ENDBRANCH  94  95
ENDBRANCH  89  94
BRANCH  90 109
ATOM    109  O   UNL d   1      36.287  41.634   6.777  0.00  0.00    -0.307 OA
BRANCH 109 110
ATOM    110  C   UNL d   1      35.925  42.444   7.238  0.00  0.00     0.294 C 
ATOM    111  O   UNL d   1      36.507  42.967   7.862  0.00  0.00    -0.259 OA
BRANCH 110 112
ATOM    112  C   UNL d   1      34.982  42.732   7.076  0.00  0.00     0.045 A 
ATOM    113  C   UNL d   1      34.775  43.697   6.909  0.00  0.00     0.057 A 
ATOM    114  C   UNL d   1      33.831  43.984   6.747  0.00  0.00     0.102 A 
ATOM    115  C   UNL d   1      33.094  43.308   6.750  0.00  0.00     0.132 A 
ATOM    116  C   UNL d   1      33.301  42.344   6.916  0.00  0.00     0.102 A 
ATOM    117  C   UNL d   1      34.245  42.056   7.079  0.00  0.00     0.057 A 
BRANCH 114 118
ATOM    118  O   UNL d   1      33.624  44.949   6.581  0.00  0.00    -0.358 OA
ATOM    119  H   UNL d   1      33.075  45.182   6.751  0.00  0.00     0.217 HD
ENDBRANCH 114 118
BRANCH 115 120
ATOM    120  O   UNL d   1      32.150  43.596   6.588  0.00  0.00    -0.356 OA
ATOM    121  H   UNL d   1      31.798  43.785   7.061  0.00  0.00     0.218 HD
ENDBRANCH 115 120
BRANCH 116 122
ATOM    122  O   UNL d   1      32.564  41.668   6.920  0.00  0.00    -0.358 OA
ATOM    123  H   UNL d   1      32.529  41.245   6.468  0.00  0.00     0.217 HD
ENDBRANCH 116 122
ENDBRANCH 110 112
ENDBRANCH 109 110
ENDBRANCH  90 109
BRANCH  91 124
ATOM    124  C   UNL d   1      37.421  42.460   5.351  0.00  0.00     0.213 C 
BRANCH 124 125
ATOM    125  O   UNL d   1      37.925  43.241   4.983  0.00  0.00    -0.315 OA
BRANCH 125 126
ATOM    126  C   UNL d   1      37.520  43.803   4.262  0.00  0.00     0.293 C 
ATOM    127  O   UNL d   1      36.928  43.382   3.574  0.00  0.00    -0.259 OA
BRANCH 126 128
ATOM    128  C   UNL d   1      37.706  44.785   4.228  0.00  0.00     0.045 A 
ATOM    129  C   UNL d   1      37.814  45.302   5.077  0.00  0.00     0.057 A 
ATOM    130  C   UNL d   1      38.000  46.284   5.043  0.00  0.00     0.102 A 
ATOM    131  C   UNL d   1      38.079  46.748   4.161  0.00  0.00     0.132 A 
ATOM    132  C   UNL d   1      37.971  46.231   3.312  0.00  0.00     0.102 A 
ATOM    133  C   UNL d   1      37.785  45.249   3.346  0.00  0.00     0.057 A 
BRANCH 130 134
ATOM    134  O   UNL d   1      38.108  46.802   5.892  0.00  0.00    -0.358 OA
ATOM    135  H   UNL d   1      38.653  47.066   6.027  0.00  0.00     0.217 HD
ENDBRANCH 130 134
BRANCH 131 136
ATOM    136  O   UNL d   1      38.265  47.730   4.128  0.00  0.00    -0.356 OA
ATOM    137  H   UNL d   1      38.280  48.061   4.652  0.00  0.00     0.218 HD
ENDBRANCH 131 136
BRANCH 132 138
ATOM    138  O   UNL d   1      38.050  46.695   2.430  0.00  0.00    -0.358 OA
ATOM    139  H   UNL d   1      37.540  46.886   2.134  0.00  0.00     0.217 HD
ENDBRANCH 132 138
ENDBRANCH 126 128
ENDBRANCH 125 126
ENDBRANCH 124 125
ENDBRANCH  91 124
BRANCH  93 140
ATOM    140  O   UNL d   1      40.230  40.962   6.718  0.00  0.00    -0.283 OA
BRANCH 140 141
ATOM    141  C   UNL d   1      40.726  40.970   5.849  0.00  0.00     0.295 C 
ATOM    142  O   UNL d   1      40.344  40.503   5.052  0.00  0.00    -0.259 OA
BRANCH 141 143
ATOM    143  C   UNL d   1      41.603  41.444   5.779  0.00  0.00     0.045 A 
ATOM    144  C   UNL d   1      42.035  41.567   4.885  0.00  0.00     0.057 A 
ATOM    145  C   UNL d   1      42.912  42.041   4.814  0.00  0.00     0.102 A 
ATOM    146  C   UNL d   1      43.358  42.393   5.637  0.00  0.00     0.132 A 
ATOM    147  C   UNL d   1      42.926  42.271   6.531  0.00  0.00     0.102 A 
ATOM    148  C   UNL d   1      42.049  41.796   6.602  0.00  0.00     0.057 A 
BRANCH 145 149
ATOM    149  O   UNL d   1      43.343  42.164   3.921  0.00  0.00    -0.358 OA
ATOM    150  H   UNL d   1      43.199  42.655   3.572  0.00  0.00     0.217 HD
ENDBRANCH 145 149
BRANCH 146 151
ATOM    151  O   UNL d   1      44.235  42.868   5.567  0.00  0.00    -0.356 OA
ATOM    152  H   UNL d   1      44.255  43.487   5.585  0.00  0.00     0.218 HD
ENDBRANCH 146 151
BRANCH 147 153
ATOM    153  O   UNL d   1      43.372  42.623   7.354  0.00  0.00    -0.358 OA
ATOM    154  H   UNL d   1      43.466  42.249   7.840  0.00  0.00     0.217 HD
ENDBRANCH 147 153
ENDBRANCH 141 143
ENDBRANCH 140 141
ENDBRANCH  93 140
ENDBRANCH  87  88
ENDBRANCH  85  87
ENDBRANCH   1  85
BRANCH   4 155
ATOM    155  O   UNL d   1      41.497  38.516  10.949  0.00  0.00    -0.356 OA
ATOM    156  H   UNL d   1      40.982  38.584  11.288  0.00  0.00     0.218 HD
ENDBRANCH   4 155
BRANCH   6 157
ATOM    157  O   UNL d   1      42.774  40.028  11.241  0.00  0.00    -0.356 OA
ATOM    158  H   UNL d   1      43.334  39.973  10.982  0.00  0.00     0.218 HD
ENDBRANCH   6 157
BRANCH   5 159
ATOM    159  O   UNL d   1      42.438  41.801  10.379  0.00  0.00    -0.358 OA
ATOM    160  H   UNL d   1      42.271  42.379  10.230  0.00  0.00     0.217 HD
ENDBRANCH   5 159
TORSDOF 47
ENDMDL
MODEL 5
REMARK VINA RESULT:    -7.262      8.734     17.332
REMARK INTER + INTRA:          58.327
REMARK INTER:                 -21.596
REMARK INTRA:                  79.923
REMARK UNBOUND:                79.387
REMARK WARNING: 32 MAX_TORS EXCEEDED!!!
REMARK  47 active torsions:
REMARK  status: ('A' for Active; 'I' for Inactive)
REMARK    1  A    between atoms: C_58  and  O_6 
REMARK    2  A    between atoms: O_6  and  C_80 
REMARK    3  A    between atoms: C_59  and  O_7 
REMARK    4  A    between atoms: C_71  and  O_12 
REMARK    5  A    between atoms: O_12  and  C_90 
REMARK    6  A    between atoms: C_72  and  O_13 
REMARK    7  A    between atoms: O_13  and  C_91 
REMARK    8  A    between atoms: C_74  and  O_15 
REMARK    9  A    between atoms: O_15  and  C_89 
REMARK   10  A    between atoms: O_16  and  C_70 
REMARK   11  A    between atoms: C_77  and  O_18 
REMARK   12  A    between atoms: O_18  and  C_96 
REMARK   13  A    between atoms: O_19  and  C_76 
REMARK   14  A    between atoms: O_21  and  C_79 
REMARK   15  A    between atoms: O_21  and  C_104 
REMARK   16  A    between atoms: O_24  and  C_97 
REMARK   17  A    between atoms: O_24  and  C_105 
REMARK   18  A    between atoms: O_25  and  C_88 
REMARK   19  A    between atoms: O_26  and  C_93 
REMARK   20  A    between atoms: O_30  and  C_94 
REMARK   21  A    between atoms: O_31  and  C_95 
REMARK   22  A    between atoms: O_32  and  C_98 
REMARK   23  A    between atoms: O_35  and  C_107 
REMARK   24  A    between atoms: O_36  and  C_108 
REMARK   25  A    between atoms: O_37  and  C_110 
REMARK   26  A    between atoms: O_38  and  C_111 
REMARK   27  A    between atoms: O_39  and  C_117 
REMARK   28  A    between atoms: O_40  and  C_120 
REMARK   29  A    between atoms: O_41  and  C_121 
REMARK   30  A    between atoms: O_42  and  C_122 
REMARK   31  A    between atoms: O_43  and  C_123 
REMARK   32  A    between atoms: O_44  and  C_124 
REMARK   33  A    between atoms: O_45  and  C_127 
REMARK   34  A    between atoms: O_46  and  C_128 
REMARK   35  A    between atoms: O_47  and  C_129 
REMARK   36  A    between atoms: O_48  and  C_130 
REMARK   37  A    between atoms: O_49  and  C_131 
REMARK   38  A    between atoms: O_50  and  C_132 
REMARK   39  A    between atoms: O_51  and  C_133 
REMARK   40  A    between atoms: O_52  and  C_134 
REMARK   41  A    between atoms: C_75  and  C_79 
REMARK   42  A    between atoms: C_80  and  C_86 
REMARK   43  A    between atoms: C_89  and  C_101 
REMARK   44  A    between atoms: C_90  and  C_102 
REMARK   45  A    between atoms: C_91  and  C_103 
REMARK   46  A    between atoms: C_96  and  C_106 
REMARK   47  A    between atoms: C_104  and  C_112 
ROOT
ATOM      1  C   UNL d   1      41.259  37.320   9.815  0.00  0.00     0.079 A 
ATOM      2  C   UNL d   1      41.438  36.809  10.655  0.00  0.00     0.128 A 
ATOM      3  C   UNL d   1      41.883  37.238   9.038  0.00  0.00     0.060 A 
ATOM      4  C   UNL d   1      42.240  36.217  10.719  0.00  0.00     0.137 A 
ATOM      5  C   UNL d   1      42.686  36.645   9.102  0.00  0.00     0.102 A 
ATOM      6  C   UNL d   1      42.864  36.135   9.943  0.00  0.00     0.135 A 
ENDROOT
BRANCH   2   7
ATOM      7  O   UNL d   1      41.180  36.561  11.590  0.00  0.00    -0.304 OA
BRANCH   7   8
ATOM      8  C   UNL d   1      40.370  36.515  12.174  0.00  0.00     0.113 A 
ATOM      9  C   UNL d   1      39.656  35.772  12.023  0.00  0.00     0.058 A 
ATOM     10  C   UNL d   1      38.816  35.733  12.638  0.00  0.00     0.056 A 
ATOM     11  C   UNL d   1      38.498  34.934  12.128  0.00  0.00     0.294 A 
ATOM     12  C   UNL d   1      38.686  36.401  13.371  0.00  0.00     0.030 A 
ATOM     13  O   UNL d   1      37.817  34.217  11.977  0.00  0.00    -0.315 OA
ATOM     14  O   UNL d   1      38.847  34.404  11.355  0.00  0.00    -0.259 OA
ATOM     15  C   UNL d   1      36.955  33.776  12.227  0.00  0.00     0.213 A 
ATOM     16  C   UNL d   1      36.144  33.727  12.809  0.00  0.00     0.181 A 
ATOM     17  O   UNL d   1      34.839  33.221  13.342  0.00  0.00    -0.348 OA
ATOM     18  C   UNL d   1      35.601  34.083  13.568  0.00  0.00     0.195 A 
ATOM     19  C   UNL d   1      34.194  33.918  14.501  0.00  0.00     0.302 A 
ATOM     20  C   UNL d   1      34.864  35.111  15.112  0.00  0.00     0.220 A 
ATOM     21  O   UNL d   1      33.967  34.988  15.691  0.00  0.00    -0.304 OA
ATOM     22  C   UNL d   1      35.470  34.751  14.302  0.00  0.00     0.198 A 
ATOM     23  C   UNL d   1      33.068  34.422  15.851  0.00  0.00     0.294 A 
ATOM     24  O   UNL d   1      32.597  34.850  16.622  0.00  0.00    -0.259 OA
ATOM     25  C   UNL d   1      32.456  33.595  15.542  0.00  0.00     0.052 A 
ATOM     26  C   UNL d   1      32.328  32.772  14.862  0.00  0.00     0.009 A 
ATOM     27  C   UNL d   1      31.839  33.953  16.360  0.00  0.00     0.057 A 
ATOM     28  C   UNL d   1      32.724  32.219  14.032  0.00  0.00     0.133 A 
ATOM     29  C   UNL d   1      31.405  32.317  15.148  0.00  0.00     0.117 A 
ATOM     30  C   UNL d   1      32.043  31.427  13.810  0.00  0.00     0.250 A 
ATOM     31  C   UNL d   1      33.519  32.113  13.316  0.00  0.00     0.035 A 
ATOM     32  O   UNL d   1      31.229  31.488  14.499  0.00  0.00    -0.302 OA
ATOM     33  C   UNL d   1      32.063  30.646  13.055  0.00  0.00     0.262 A 
ATOM     34  O   UNL d   1      31.330  29.971  12.984  0.00  0.00    -0.283 OA
ATOM     35  C   UNL d   1      32.915  30.629  12.379  0.00  0.00     0.224 A 
ATOM     36  O   UNL d   1      32.995  29.937  11.661  0.00  0.00    -0.284 OA
ATOM     37  C   UNL d   1      33.674  31.395  12.515  0.00  0.00     0.073 A 
ATOM     38  C   UNL d   1      34.455  32.488  12.945  0.00  0.00     0.290 A 
ATOM     39  O   UNL d   1      35.232  33.224  13.040  0.00  0.00    -0.307 OA
ATOM     40  O   UNL d   1      34.716  31.896  12.183  0.00  0.00    -0.260 OA
ATOM     41  C   UNL d   1      30.690  32.560  15.931  0.00  0.00     0.133 A 
ATOM     42  C   UNL d   1      30.917  33.414  16.564  0.00  0.00     0.102 A 
ATOM     43  O   UNL d   1      35.788  35.551  14.812  0.00  0.00    -0.306 OA
ATOM     44  C   UNL d   1      36.469  36.267  14.962  0.00  0.00     0.294 A 
ATOM     45  O   UNL d   1      36.120  36.797  15.735  0.00  0.00    -0.259 OA
ATOM     46  C   UNL d   1      37.331  36.709  14.713  0.00  0.00     0.056 A 
ATOM     47  C   UNL d   1      38.142  36.758  14.131  0.00  0.00     0.030 A 
ATOM     48  C   UNL d   1      37.181  37.397  15.480  0.00  0.00     0.058 A 
ATOM     49  C   UNL d   1      38.860  37.499  14.275  0.00  0.00     0.114 A 
ATOM     50  C   UNL d   1      38.731  38.198  15.037  0.00  0.00     0.133 A 
ATOM     51  C   UNL d   1      37.886  38.146  15.644  0.00  0.00     0.102 A 
ATOM     52  C   UNL d   1      39.386  37.153  13.540  0.00  0.00     0.114 A 
ATOM     53  C   UNL d   1      40.234  37.210  12.937  0.00  0.00     0.134 A 
BRANCH  19  54
ATOM     54  O   UNL d   1      33.444  33.998  15.158  0.00  0.00    -0.283 OA
BRANCH  54  55
ATOM     55  C   UNL d   1      32.768  34.728  15.059  0.00  0.00     0.295 C 
ATOM     56  O   UNL d   1      32.111  35.361  15.468  0.00  0.00    -0.259 OA
BRANCH  55  57
ATOM     57  C   UNL d   1      32.183  35.415  14.628  0.00  0.00     0.045 A 
ATOM     58  C   UNL d   1      32.055  35.413  13.637  0.00  0.00     0.057 A 
ATOM     59  C   UNL d   1      31.470  36.099  13.206  0.00  0.00     0.102 A 
ATOM     60  C   UNL d   1      31.011  36.788  13.767  0.00  0.00     0.132 A 
ATOM     61  C   UNL d   1      31.138  36.791  14.760  0.00  0.00     0.102 A 
ATOM     62  C   UNL d   1      31.724  36.104  15.190  0.00  0.00     0.057 A 
BRANCH  59  63
ATOM     63  O   UNL d   1      31.343  36.097  12.215  0.00  0.00    -0.358 OA
ATOM     64  H   UNL d   1      31.673  35.711  11.860  0.00  0.00     0.217 HD
ENDBRANCH  59  63
BRANCH  60  65
ATOM     65  O   UNL d   1      30.425  37.475  13.337  0.00  0.00    -0.356 OA
ATOM     66  H   UNL d   1      30.660  37.859  12.911  0.00  0.00     0.218 HD
ENDBRANCH  60  65
BRANCH  61  67
ATOM     67  O   UNL d   1      30.680  37.480  15.321  0.00  0.00    -0.358 OA
ATOM     68  H   UNL d   1      30.882  38.066  15.318  0.00  0.00     0.217 HD
ENDBRANCH  61  67
ENDBRANCH  55  57
ENDBRANCH  54  55
ENDBRANCH  19  54
BRANCH  30  69
ATOM     69  O   UNL d   1      31.568  30.635  13.428  0.00  0.00    -0.358 OA
ATOM     70  H   UNL d   1      31.508  30.575  12.814  0.00  0.00     0.213 HD
ENDBRANCH  30  69
BRANCH  41  71
ATOM     71  O   UNL d   1      29.860  32.020  16.063  0.00  0.00    -0.356 OA
ATOM     72  H   UNL d   1      29.684  31.855  16.635  0.00  0.00     0.218 HD
ENDBRANCH  41  71
BRANCH  42  73
ATOM     73  O   UNL d   1      30.303  33.691  17.303  0.00  0.00    -0.358 OA
ATOM     74  H   UNL d   1      30.303  34.278  17.502  0.00  0.00     0.217 HD
ENDBRANCH  42  73
BRANCH  49  75
ATOM     75  O   UNL d   1      39.712  37.677  13.783  0.00  0.00    -0.357 OA
ATOM     76  H   UNL d   1      39.910  37.907  13.242  0.00  0.00     0.217 HD
ENDBRANCH  49  75
BRANCH  50  77
ATOM     77  O   UNL d   1      39.415  38.913  15.184  0.00  0.00    -0.356 OA
ATOM     78  H   UNL d   1      39.445  39.204  15.731  0.00  0.00     0.218 HD
ENDBRANCH  50  77
BRANCH  51  79
ATOM     79  O   UNL d   1      37.753  38.812  16.377  0.00  0.00    -0.358 OA
ATOM     80  H   UNL d   1      37.290  39.223  16.342  0.00  0.00     0.217 HD
ENDBRANCH  51  79
BRANCH  52  81
ATOM     81  O   UNL d   1      39.398  37.883  14.223  0.00  0.00    -0.357 OA
ATOM     82  H   UNL d   1      39.435  37.959  14.837  0.00  0.00     0.217 HD
ENDBRANCH  52  81
BRANCH  53  83
ATOM     83  O   UNL d   1      40.913  37.928  13.091  0.00  0.00    -0.356 OA
ATOM     84  H   UNL d   1      40.864  38.301  13.584  0.00  0.00     0.218 HD
ENDBRANCH  53  83
ENDBRANCH   7   8
ENDBRANCH   2   7
BRANCH   1  85
ATOM     85  C   UNL d   1      40.455  37.912   9.750  0.00  0.00     0.296 C 
ATOM     86  O   UNL d   1      40.047  37.560   8.908  0.00  0.00    -0.259 OA
BRANCH  85  87
ATOM     87  O   UNL d   1      40.016  38.663  10.243  0.00  0.00    -0.304 OA
BRANCH  87  88
ATOM     88  C   UNL d   1      39.552  39.390   9.737  0.00  0.00     0.220 A 
ATOM     89  C   UNL d   1      38.569  39.329   9.565  0.00  0.00     0.198 A 
ATOM     90  C   UNL d   1      38.104  40.056   9.058  0.00  0.00     0.195 A 
ATOM     91  C   UNL d   1      38.623  40.843   8.724  0.00  0.00     0.181 A 
ATOM     92  O   UNL d   1      39.606  40.903   8.896  0.00  0.00    -0.348 OA
ATOM     93  C   UNL d   1      40.071  40.177   9.403  0.00  0.00     0.302 A 
BRANCH  89  94
ATOM     94  O   UNL d   1      38.050  38.542   9.899  0.00  0.00    -0.306 OA
BRANCH  94  95
ATOM     95  C   UNL d   1      37.543  38.606  10.759  0.00  0.00     0.294 C 
ATOM     96  O   UNL d   1      37.846  39.238  11.472  0.00  0.00    -0.259 OA
BRANCH  95  97
ATOM     97  C   UNL d   1      36.733  38.038  10.905  0.00  0.00     0.045 A 
ATOM     98  C   UNL d   1      36.081  38.273  11.626  0.00  0.00     0.057 A 
ATOM     99  C   UNL d   1      35.272  37.705  11.772  0.00  0.00     0.102 A 
ATOM    100  C   UNL d   1      35.113  36.902  11.198  0.00  0.00     0.132 A 
ATOM    101  C   UNL d   1      35.765  36.667  10.477  0.00  0.00     0.102 A 
ATOM    102  C   UNL d   1      36.575  37.235  10.330  0.00  0.00     0.057 A 
BRANCH  99 103
ATOM    103  O   UNL d   1      34.620  37.940  12.493  0.00  0.00    -0.358 OA
ATOM    104  H   UNL d   1      34.802  38.285  12.975  0.00  0.00     0.217 HD
ENDBRANCH  99 103
BRANCH 100 105
ATOM    105  O   UNL d   1      34.304  36.334  11.344  0.00  0.00    -0.356 OA
ATOM    106  H   UNL d   1      34.008  36.350  11.889  0.00  0.00     0.218 HD
ENDBRANCH 100 105
BRANCH 101 107
ATOM    107  O   UNL d   1      35.607  35.864   9.902  0.00  0.00    -0.358 OA
ATOM    108  H   UNL d   1      35.629  35.916   9.284  0.00  0.00     0.217 HD
ENDBRANCH 101 107
ENDBRANCH  95  97
ENDBRANCH  94  95
ENDBRANCH  89  94
BRANCH  90 109
ATOM    109  O   UNL d   1      37.121  39.996   8.886  0.00  0.00    -0.307 OA
BRANCH 109 110
ATOM    110  C   UNL d   1      36.788  39.684   7.996  0.00  0.00     0.294 C 
ATOM    111  O   UNL d   1      37.420  39.268   7.343  0.00  0.00    -0.259 OA
BRANCH 110 112
ATOM    112  C   UNL d   1      35.821  39.788   7.760  0.00  0.00     0.045 A 
ATOM    113  C   UNL d   1      35.532  39.732   6.805  0.00  0.00     0.057 A 
ATOM    114  C   UNL d   1      34.565  39.836   6.568  0.00  0.00     0.102 A 
ATOM    115  C   UNL d   1      33.889  39.997   7.287  0.00  0.00     0.132 A 
ATOM    116  C   UNL d   1      34.179  40.053   8.243  0.00  0.00     0.102 A 
ATOM    117  C   UNL d   1      35.145  39.949   8.479  0.00  0.00     0.057 A 
BRANCH 114 118
ATOM    118  O   UNL d   1      34.276  39.780   5.613  0.00  0.00    -0.358 OA
ATOM    119  H   UNL d   1      33.780  40.099   5.420  0.00  0.00     0.217 HD
ENDBRANCH 114 118
BRANCH 115 120
ATOM    120  O   UNL d   1      32.923  40.101   7.051  0.00  0.00    -0.356 OA
ATOM    121  H   UNL d   1      32.723  39.938   6.487  0.00  0.00     0.218 HD
ENDBRANCH 115 120
BRANCH 116 122
ATOM    122  O   UNL d   1      33.503  40.214   8.962  0.00  0.00    -0.358 OA
ATOM    123  H   UNL d   1      33.675  40.480   9.495  0.00  0.00     0.217 HD
ENDBRANCH 116 122
ENDBRANCH 110 112
ENDBRANCH 109 110
ENDBRANCH  90 109
BRANCH  91 124
ATOM    124  C   UNL d   1      38.159  41.569   8.218  0.00  0.00     0.213 C 
BRANCH 124 125
ATOM    125  O   UNL d   1      38.506  42.506   8.256  0.00  0.00    -0.315 OA
BRANCH 125 126
ATOM    126  C   UNL d   1      37.872  43.278   8.200  0.00  0.00     0.293 C 
ATOM    127  O   UNL d   1      37.077  43.316   8.805  0.00  0.00    -0.259 OA
BRANCH 126 128
ATOM    128  C   UNL d   1      38.033  44.010   7.539  0.00  0.00     0.045 A 
ATOM    129  C   UNL d   1      37.510  44.861   7.598  0.00  0.00     0.057 A 
ATOM    130  C   UNL d   1      37.671  45.593   6.936  0.00  0.00     0.102 A 
ATOM    131  C   UNL d   1      38.355  45.476   6.216  0.00  0.00     0.132 A 
ATOM    132  C   UNL d   1      38.878  44.626   6.158  0.00  0.00     0.102 A 
ATOM    133  C   UNL d   1      38.717  43.893   6.819  0.00  0.00     0.057 A 
BRANCH 130 134
ATOM    134  O   UNL d   1      37.148  46.444   6.995  0.00  0.00    -0.358 OA
ATOM    135  H   UNL d   1      36.534  46.425   7.077  0.00  0.00     0.217 HD
ENDBRANCH 130 134
BRANCH 131 136
ATOM    136  O   UNL d   1      38.516  46.209   5.555  0.00  0.00    -0.356 OA
ATOM    137  H   UNL d   1      38.157  46.714   5.559  0.00  0.00     0.218 HD
ENDBRANCH 131 136
BRANCH 132 138
ATOM    138  O   UNL d   1      39.562  44.508   5.438  0.00  0.00    -0.358 OA
ATOM    139  H   UNL d   1      40.081  44.848   5.444  0.00  0.00     0.217 HD
ENDBRANCH 132 138
ENDBRANCH 126 128
ENDBRANCH 125 126
ENDBRANCH 124 125
ENDBRANCH  91 124
BRANCH  93 140
ATOM    140  O   UNL d   1      41.054  40.237   9.575  0.00  0.00    -0.283 OA
BRANCH 140 141
ATOM    141  C   UNL d   1      41.459  41.106   9.860  0.00  0.00     0.295 C 
ATOM    142  O   UNL d   1      41.036  41.638  10.593  0.00  0.00    -0.259 OA
BRANCH 141 143
ATOM    143  C   UNL d   1      42.287  41.442   9.412  0.00  0.00     0.045 A 
ATOM    144  C   UNL d   1      42.840  40.823   8.853  0.00  0.00     0.057 A 
ATOM    145  C   UNL d   1      43.668  41.160   8.405  0.00  0.00     0.102 A 
ATOM    146  C   UNL d   1      43.944  42.114   8.516  0.00  0.00     0.132 A 
ATOM    147  C   UNL d   1      43.392  42.733   9.075  0.00  0.00     0.102 A 
ATOM    148  C   UNL d   1      42.564  42.397   9.523  0.00  0.00     0.057 A 
BRANCH 145 149
ATOM    149  O   UNL d   1      44.220  40.541   7.846  0.00  0.00    -0.358 OA
ATOM    150  H   UNL d   1      44.749  40.742   7.592  0.00  0.00     0.217 HD
ENDBRANCH 145 149
BRANCH 146 151
ATOM    151  O   UNL d   1      44.773  42.450   8.068  0.00  0.00    -0.356 OA
ATOM    152  H   UNL d   1      44.901  42.280   7.486  0.00  0.00     0.218 HD
ENDBRANCH 146 151
BRANCH 147 153
ATOM    153  O   UNL d   1      43.668  43.687   9.186  0.00  0.00    -0.358 OA
ATOM    154  H   UNL d   1      43.383  44.132   8.862  0.00  0.00     0.217 HD
ENDBRANCH 147 153
ENDBRANCH 141 143
ENDBRANCH 140 141
ENDBRANCH  93 140
ENDBRANCH  87  88
ENDBRANCH  85  87
ENDBRANCH   1  85
BRANCH   4 155
ATOM    155  O   UNL d   1      42.419  35.706  11.560  0.00  0.00    -0.356 OA
ATOM    156  H   UNL d   1      42.549  36.236  11.855  0.00  0.00     0.218 HD
ENDBRANCH   4 155
BRANCH   6 157
ATOM    157  O   UNL d   1      43.668  35.542  10.007  0.00  0.00    -0.356 OA
ATOM    158  H   UNL d   1      43.742  35.173  10.498  0.00  0.00     0.218 HD
ENDBRANCH   6 157
BRANCH   5 159
ATOM    159  O   UNL d   1      43.311  36.564   8.325  0.00  0.00    -0.358 OA
ATOM    160  H   UNL d   1      43.923  36.615   8.414  0.00  0.00     0.217 HD
ENDBRANCH   5 159
TORSDOF 47
ENDMDL
