MODEL 1
REMARK VINA RESULT:    -7.956      0.000      0.000
REMARK INTER + INTRA:          -2.813
REMARK INTER:                 -12.606
REMARK INTRA:                   9.792
REMARK UNBOUND:                 9.793
REMARK  14 active torsions:
REMARK  status: ('A' for Active; 'I' for Inactive)
REMARK    1  A    between atoms: C_15  and  O_1 
REMARK    2  A    between atoms: C_18  and  O_1 
REMARK    3  A    between atoms: C_16  and  O_4 
REMARK    4  A    between atoms: C_20  and  O_5 
REMARK    5  A    between atoms: O_5  and  C_27 
REMARK    6  A    between atoms: C_17  and  O_6 
REMARK    7  A    between atoms: C_19  and  O_7 
REMARK    8  A    between atoms: C_22  and  O_8 
REMARK    9  A    between atoms: C_23  and  O_9 
REMARK   10  A    between atoms: O_10  and  C_25 
REMARK   11  A    between atoms: O_12  and  C_31 
REMARK   12  A    between atoms: O_14  and  C_41 
REMARK   13  A    between atoms: C_21  and  C_25 
REMARK   14  A    between atoms: C_34  and  C_36 
ROOT
ATOM      1  O   UNL d   1      25.118  46.841  32.423  0.00  0.00    -0.348 OA
ATOM      2  C   UNL d   1      25.179  47.088  34.136  0.00  0.00     0.211 A 
ATOM      3  C   UNL d   1      25.728  47.912  33.998  0.00  0.00     0.183 A 
ATOM      4  C   UNL d   1      25.972  48.200  33.072  0.00  0.00     0.180 A 
ATOM      5  C   UNL d   1      24.874  46.552  33.349  0.00  0.00     0.298 A 
ATOM      6  C   UNL d   1      25.667  47.665  32.284  0.00  0.00     0.179 A 
ENDROOT
BRANCH   5   7
ATOM      7  O   UNL d   1      24.324  45.728  33.487  0.00  0.00    -0.318 OA
BRANCH   7   8
ATOM      8  C   UNL d   1      24.525  44.900  32.964  0.00  0.00     0.077 A 
ATOM      9  C   UNL d   1      25.294  44.264  33.261  0.00  0.00     0.075 A 
ATOM     10  C   UNL d   1      25.494  43.404  32.709  0.00  0.00     0.095 A 
ATOM     11  O   UNL d   1      26.234  42.799  33.001  0.00  0.00    -0.309 OA
ATOM     12  C   UNL d   1      24.957  43.180  31.895  0.00  0.00     0.081 A 
ATOM     13  C   UNL d   1      26.437  41.970  32.480  0.00  0.00     0.090 A 
ATOM     14  C   UNL d   1      25.900  41.746  31.667  0.00  0.00     0.094 A 
ATOM     15  C   UNL d   1      25.160  42.351  31.374  0.00  0.00     0.190 A 
ATOM     16  O   UNL d   1      24.623  42.128  30.561  0.00  0.00    -0.287 OA
ATOM     17  C   UNL d   1      24.183  43.802  31.579  0.00  0.00     0.085 A 
ATOM     18  C   UNL d   1      23.965  44.667  32.116  0.00  0.00     0.074 A 
BRANCH  13  19
ATOM     19  C   UNL d   1      27.178  41.364  32.772  0.00  0.00    -0.002 A 
ATOM     20  C   UNL d   1      28.130  41.636  32.636  0.00  0.00     0.017 A 
ATOM     21  C   UNL d   1      28.870  41.030  32.929  0.00  0.00     0.037 A 
ATOM     22  C   UNL d   1      28.658  40.152  33.356  0.00  0.00     0.065 A 
ATOM     23  C   UNL d   1      27.705  39.879  33.492  0.00  0.00     0.037 A 
ATOM     24  C   UNL d   1      26.965  40.485  33.200  0.00  0.00     0.017 A 
BRANCH  22  25
ATOM     25  O   UNL d   1      29.398  39.546  33.648  0.00  0.00    -0.361 OA
ATOM     26  H   UNL d   1      29.854  39.765  34.008  0.00  0.00     0.217 HD
ENDBRANCH  22  25
ENDBRANCH  13  19
BRANCH  17  27
ATOM     27  O   UNL d   1      23.652  43.568  30.764  0.00  0.00    -0.360 OA
ATOM     28  H   UNL d   1      23.063  43.755  30.714  0.00  0.00     0.217 HD
ENDBRANCH  17  27
ENDBRANCH   7   8
ENDBRANCH   5   7
BRANCH   2  29
ATOM     29  O   UNL d   1      24.935  46.800  35.062  0.00  0.00    -0.346 OA
BRANCH  29  30
ATOM     30  C   UNL d   1      24.046  47.051  35.446  0.00  0.00     0.292 A 
ATOM     31  O   UNL d   1      23.564  47.858  35.105  0.00  0.00    -0.351 OA
ATOM     32  C   UNL d   1      22.676  48.110  35.489  0.00  0.00     0.152 A 
ATOM     33  C   UNL d   1      22.269  47.554  36.214  0.00  0.00     0.178 A 
ATOM     34  C   UNL d   1      22.194  48.917  35.148  0.00  0.00     0.042 C 
ATOM     35  C   UNL d   1      22.751  46.746  36.555  0.00  0.00     0.183 A 
ATOM     36  C   UNL d   1      23.639  46.495  36.171  0.00  0.00     0.204 A 
BRANCH  33  37
ATOM     37  O   UNL d   1      21.381  47.805  36.598  0.00  0.00    -0.390 OA
ATOM     38  H   UNL d   1      21.219  48.402  36.640  0.00  0.00     0.210 HD
ENDBRANCH  33  37
BRANCH  35  39
ATOM     39  O   UNL d   1      22.344  46.190  37.279  0.00  0.00    -0.390 OA
ATOM     40  H   UNL d   1      21.921  46.437  37.659  0.00  0.00     0.210 HD
ENDBRANCH  35  39
BRANCH  36  41
ATOM     41  O   UNL d   1      24.121  45.688  36.511  0.00  0.00    -0.388 OA
ATOM     42  H   UNL d   1      23.901  45.121  36.389  0.00  0.00     0.210 HD
ENDBRANCH  36  41
ENDBRANCH  29  30
ENDBRANCH   2  29
BRANCH   6  43
ATOM     43  C   UNL d   1      25.911  47.953  31.359  0.00  0.00     0.198 C 
BRANCH  43  44
ATOM     44  O   UNL d   1      25.713  47.357  30.581  0.00  0.00    -0.398 OA
ATOM     45  H   UNL d   1      26.074  46.865  30.467  0.00  0.00     0.209 HD
ENDBRANCH  43  44
ENDBRANCH   6  43
BRANCH   3  46
ATOM     46  O   UNL d   1      26.033  48.448  34.785  0.00  0.00    -0.390 OA
ATOM     47  H   UNL d   1      26.221  48.161  35.301  0.00  0.00     0.210 HD
ENDBRANCH   3  46
BRANCH   4  48
ATOM     48  O   UNL d   1      26.521  49.025  32.933  0.00  0.00    -0.390 OA
ATOM     49  H   UNL d   1      26.363  49.553  33.215  0.00  0.00     0.210 HD
ENDBRANCH   4  48
TORSDOF 14
ENDMDL
MODEL 2
REMARK VINA RESULT:    -7.784     30.979     33.769
REMARK INTER + INTRA:          -2.541
REMARK INTER:                 -12.567
REMARK INTRA:                  10.026
REMARK UNBOUND:                 9.793
REMARK  14 active torsions:
REMARK  status: ('A' for Active; 'I' for Inactive)
REMARK    1  A    between atoms: C_15  and  O_1 
REMARK    2  A    between atoms: C_18  and  O_1 
REMARK    3  A    between atoms: C_16  and  O_4 
REMARK    4  A    between atoms: C_20  and  O_5 
REMARK    5  A    between atoms: O_5  and  C_27 
REMARK    6  A    between atoms: C_17  and  O_6 
REMARK    7  A    between atoms: C_19  and  O_7 
REMARK    8  A    between atoms: C_22  and  O_8 
REMARK    9  A    between atoms: C_23  and  O_9 
REMARK   10  A    between atoms: O_10  and  C_25 
REMARK   11  A    between atoms: O_12  and  C_31 
REMARK   12  A    between atoms: O_14  and  C_41 
REMARK   13  A    between atoms: C_21  and  C_25 
REMARK   14  A    between atoms: C_34  and  C_36 
ROOT
ATOM      1  O   UNL d   1      45.203  41.627   6.164  0.00  0.00    -0.348 OA
ATOM      2  C   UNL d   1      45.763  43.266   6.181  0.00  0.00     0.211 A 
ATOM      3  C   UNL d   1      46.444  43.026   6.872  0.00  0.00     0.183 A 
ATOM      4  C   UNL d   1      46.504  42.087   7.210  0.00  0.00     0.180 A 
ATOM      5  C   UNL d   1      45.142  42.567   5.826  0.00  0.00     0.298 A 
ATOM      6  C   UNL d   1      45.884  41.387   6.855  0.00  0.00     0.179 A 
ENDROOT
BRANCH   5   7
ATOM      7  O   UNL d   1      44.461  42.806   5.135  0.00  0.00    -0.318 OA
BRANCH   7   8
ATOM      8  C   UNL d   1      43.524  42.466   5.216  0.00  0.00     0.077 A 
ATOM      9  C   UNL d   1      42.958  42.683   6.063  0.00  0.00     0.075 A 
ATOM     10  C   UNL d   1      41.984  42.323   6.137  0.00  0.00     0.095 A 
ATOM     11  O   UNL d   1      41.447  42.535   6.954  0.00  0.00    -0.309 OA
ATOM     12  C   UNL d   1      41.584  41.771   5.406  0.00  0.00     0.081 A 
ATOM     13  C   UNL d   1      40.510  42.196   7.039  0.00  0.00     0.090 A 
ATOM     14  C   UNL d   1      40.110  41.645   6.307  0.00  0.00     0.094 A 
ATOM     15  C   UNL d   1      40.647  41.432   5.491  0.00  0.00     0.190 A 
ATOM     16  O   UNL d   1      40.247  40.880   4.759  0.00  0.00    -0.287 OA
ATOM     17  C   UNL d   1      42.131  41.541   4.549  0.00  0.00     0.085 A 
ATOM     18  C   UNL d   1      43.107  41.891   4.454  0.00  0.00     0.074 A 
BRANCH  13  19
ATOM     19  C   UNL d   1      39.973  42.409   7.855  0.00  0.00    -0.002 A 
ATOM     20  C   UNL d   1      40.259  42.058   8.747  0.00  0.00     0.017 A 
ATOM     21  C   UNL d   1      39.721  42.271   9.563  0.00  0.00     0.037 A 
ATOM     22  C   UNL d   1      38.899  42.834   9.488  0.00  0.00     0.065 A 
ATOM     23  C   UNL d   1      38.613  43.185   8.596  0.00  0.00     0.037 A 
ATOM     24  C   UNL d   1      39.150  42.972   7.779  0.00  0.00     0.017 A 
BRANCH  22  25
ATOM     25  O   UNL d   1      38.362  43.047  10.304  0.00  0.00    -0.361 OA
ATOM     26  H   UNL d   1      37.988  42.617  10.550  0.00  0.00     0.217 HD
ENDBRANCH  22  25
ENDBRANCH  13  19
BRANCH  17  27
ATOM     27  O   UNL d   1      41.720  40.989   3.824  0.00  0.00    -0.360 OA
ATOM     28  H   UNL d   1      41.199  41.179   3.547  0.00  0.00     0.217 HD
ENDBRANCH  17  27
ENDBRANCH   7   8
ENDBRANCH   5   7
BRANCH   2  29
ATOM     29  O   UNL d   1      45.702  44.205   5.843  0.00  0.00    -0.346 OA
BRANCH  29  30
ATOM     30  C   UNL d   1      46.299  44.509   5.101  0.00  0.00     0.292 A 
ATOM     31  O   UNL d   1      46.804  43.838   4.558  0.00  0.00    -0.351 OA
ATOM     32  C   UNL d   1      47.400  44.142   3.815  0.00  0.00     0.152 A 
ATOM     33  C   UNL d   1      47.493  45.118   3.616  0.00  0.00     0.178 A 
ATOM     34  C   UNL d   1      47.905  43.471   3.273  0.00  0.00     0.042 C 
ATOM     35  C   UNL d   1      46.988  45.789   4.158  0.00  0.00     0.183 A 
ATOM     36  C   UNL d   1      46.391  45.485   4.901  0.00  0.00     0.204 A 
BRANCH  33  37
ATOM     37  O   UNL d   1      48.090  45.422   2.873  0.00  0.00    -0.390 OA
ATOM     38  H   UNL d   1      48.177  46.027   2.774  0.00  0.00     0.210 HD
ENDBRANCH  33  37
BRANCH  35  39
ATOM     39  O   UNL d   1      47.081  46.764   3.959  0.00  0.00    -0.390 OA
ATOM     40  H   UNL d   1      47.602  46.980   3.702  0.00  0.00     0.210 HD
ENDBRANCH  35  39
BRANCH  36  41
ATOM     41  O   UNL d   1      45.887  46.156   5.444  0.00  0.00    -0.388 OA
ATOM     42  H   UNL d   1      46.059  46.276   6.027  0.00  0.00     0.210 HD
ENDBRANCH  36  41
ENDBRANCH  29  30
ENDBRANCH   2  29
BRANCH   6  43
ATOM     43  C   UNL d   1      45.944  40.448   7.193  0.00  0.00     0.198 C 
BRANCH  43  44
ATOM     44  O   UNL d   1      45.119  39.971   7.494  0.00  0.00    -0.398 OA
ATOM     45  H   UNL d   1      44.604  40.292   7.620  0.00  0.00     0.209 HD
ENDBRANCH  43  44
ENDBRANCH   6  43
BRANCH   3  46
ATOM     46  O   UNL d   1      47.065  43.726   7.226  0.00  0.00    -0.390 OA
ATOM     47  H   UNL d   1      47.484  43.987   6.852  0.00  0.00     0.210 HD
ENDBRANCH   3  46
BRANCH   4  48
ATOM     48  O   UNL d   1      47.186  41.847   7.901  0.00  0.00    -0.390 OA
ATOM     49  H   UNL d   1      47.020  41.803   8.497  0.00  0.00     0.210 HD
ENDBRANCH   4  48
TORSDOF 14
ENDMDL
MODEL 3
REMARK VINA RESULT:    -7.755     17.274     19.894
REMARK INTER + INTRA:          -2.496
REMARK INTER:                 -12.581
REMARK INTRA:                  10.085
REMARK UNBOUND:                 9.793
REMARK  14 active torsions:
REMARK  status: ('A' for Active; 'I' for Inactive)
REMARK    1  A    between atoms: C_15  and  O_1 
REMARK    2  A    between atoms: C_18  and  O_1 
REMARK    3  A    between atoms: C_16  and  O_4 
REMARK    4  A    between atoms: C_20  and  O_5 
REMARK    5  A    between atoms: O_5  and  C_27 
REMARK    6  A    between atoms: C_17  and  O_6 
REMARK    7  A    between atoms: C_19  and  O_7 
REMARK    8  A    between atoms: C_22  and  O_8 
REMARK    9  A    between atoms: C_23  and  O_9 
REMARK   10  A    between atoms: O_10  and  C_25 
REMARK   11  A    between atoms: O_12  and  C_31 
REMARK   12  A    between atoms: O_14  and  C_41 
REMARK   13  A    between atoms: C_21  and  C_25 
REMARK   14  A    between atoms: C_34  and  C_36 
ROOT
ATOM      1  O   UNL d   1      33.028  36.392  16.967  0.00  0.00    -0.348 OA
ATOM      2  C   UNL d   1      32.946  36.775  18.654  0.00  0.00     0.211 A 
ATOM      3  C   UNL d   1      33.805  37.282  18.581  0.00  0.00     0.183 A 
ATOM      4  C   UNL d   1      34.276  37.343  17.701  0.00  0.00     0.180 A 
ATOM      5  C   UNL d   1      32.557  36.331  17.847  0.00  0.00     0.298 A 
ATOM      6  C   UNL d   1      33.887  36.898  16.894  0.00  0.00     0.179 A 
ENDROOT
BRANCH   5   7
ATOM      7  O   UNL d   1      31.698  35.824  17.921  0.00  0.00    -0.318 OA
BRANCH   7   8
ATOM      8  C   UNL d   1      31.010  35.900  17.199  0.00  0.00     0.077 A 
ATOM      9  C   UNL d   1      30.562  36.819  16.995  0.00  0.00     0.075 A 
ATOM     10  C   UNL d   1      29.847  36.886  16.242  0.00  0.00     0.095 A 
ATOM     11  O   UNL d   1      29.421  37.771  16.052  0.00  0.00    -0.309 OA
ATOM     12  C   UNL d   1      29.583  36.081  15.710  0.00  0.00     0.081 A 
ATOM     13  C   UNL d   1      28.733  37.851  15.331  0.00  0.00     0.090 A 
ATOM     14  C   UNL d   1      28.470  37.045  14.800  0.00  0.00     0.094 A 
ATOM     15  C   UNL d   1      28.895  36.161  14.989  0.00  0.00     0.190 A 
ATOM     16  O   UNL d   1      28.632  35.355  14.458  0.00  0.00    -0.287 OA
ATOM     17  C   UNL d   1      30.018  35.152  15.896  0.00  0.00     0.085 A 
ATOM     18  C   UNL d   1      30.736  35.062  16.645  0.00  0.00     0.074 A 
BRANCH  13  19
ATOM     19  C   UNL d   1      28.307  38.736  15.141  0.00  0.00    -0.002 A 
ATOM     20  C   UNL d   1      27.929  39.280  15.890  0.00  0.00     0.017 A 
ATOM     21  C   UNL d   1      27.503  40.164  15.700  0.00  0.00     0.037 A 
ATOM     22  C   UNL d   1      27.456  40.505  14.761  0.00  0.00     0.065 A 
ATOM     23  C   UNL d   1      27.834  39.961  14.012  0.00  0.00     0.037 A 
ATOM     24  C   UNL d   1      28.260  39.076  14.202  0.00  0.00     0.017 A 
BRANCH  22  25
ATOM     25  O   UNL d   1      27.030  41.390  14.571  0.00  0.00    -0.361 OA
ATOM     26  H   UNL d   1      26.569  41.596  14.932  0.00  0.00     0.217 HD
ENDBRANCH  22  25
ENDBRANCH  13  19
BRANCH  17  27
ATOM     27  O   UNL d   1      29.747  34.354  15.358  0.00  0.00    -0.360 OA
ATOM     28  H   UNL d   1      29.222  34.366  15.028  0.00  0.00     0.217 HD
ENDBRANCH  17  27
ENDBRANCH   7   8
ENDBRANCH   5   7
BRANCH   2  29
ATOM     29  O   UNL d   1      32.475  36.714  19.534  0.00  0.00    -0.346 OA
BRANCH  29  30
ATOM     30  C   UNL d   1      32.593  35.904  20.109  0.00  0.00     0.292 A 
ATOM     31  O   UNL d   1      33.385  35.308  19.977  0.00  0.00    -0.351 OA
ATOM     32  C   UNL d   1      33.504  34.499  20.551  0.00  0.00     0.152 A 
ATOM     33  C   UNL d   1      32.830  34.285  21.259  0.00  0.00     0.178 A 
ATOM     34  C   UNL d   1      34.296  33.903  20.419  0.00  0.00     0.042 C 
ATOM     35  C   UNL d   1      32.037  34.881  21.391  0.00  0.00     0.183 A 
ATOM     36  C   UNL d   1      31.919  35.690  20.816  0.00  0.00     0.204 A 
BRANCH  33  37
ATOM     37  O   UNL d   1      32.948  33.475  21.833  0.00  0.00    -0.390 OA
ATOM     38  H   UNL d   1      32.686  33.453  22.395  0.00  0.00     0.210 HD
ENDBRANCH  33  37
BRANCH  35  39
ATOM     39  O   UNL d   1      31.363  34.667  22.098  0.00  0.00    -0.390 OA
ATOM     40  H   UNL d   1      31.119  34.098  22.131  0.00  0.00     0.210 HD
ENDBRANCH  35  39
BRANCH  36  41
ATOM     41  O   UNL d   1      31.127  36.286  20.949  0.00  0.00    -0.388 OA
ATOM     42  H   UNL d   1      30.598  36.169  20.648  0.00  0.00     0.210 HD
ENDBRANCH  36  41
ENDBRANCH  29  30
ENDBRANCH   2  29
BRANCH   6  43
ATOM     43  C   UNL d   1      34.358  36.960  16.014  0.00  0.00     0.198 C 
BRANCH  43  44
ATOM     44  O   UNL d   1      34.728  36.135  15.586  0.00  0.00    -0.398 OA
ATOM     45  H   UNL d   1      34.389  35.616  15.570  0.00  0.00     0.209 HD
ENDBRANCH  43  44
ENDBRANCH   6  43
BRANCH   3  46
ATOM     46  O   UNL d   1      34.194  37.726  19.388  0.00  0.00    -0.390 OA
ATOM     47  H   UNL d   1      34.665  38.124  19.326  0.00  0.00     0.210 HD
ENDBRANCH   3  46
BRANCH   4  48
ATOM     48  O   UNL d   1      35.135  37.849  17.628  0.00  0.00    -0.390 OA
ATOM     49  H   UNL d   1      35.150  38.456  17.756  0.00  0.00     0.210 HD
ENDBRANCH   4  48
TORSDOF 14
ENDMDL
MODEL 4
REMARK VINA RESULT:    -7.660     28.699     31.440
REMARK INTER + INTRA:          -2.344
REMARK INTER:                 -12.225
REMARK INTRA:                   9.881
REMARK UNBOUND:                 9.793
REMARK  14 active torsions:
REMARK  status: ('A' for Active; 'I' for Inactive)
REMARK    1  A    between atoms: C_15  and  O_1 
REMARK    2  A    between atoms: C_18  and  O_1 
REMARK    3  A    between atoms: C_16  and  O_4 
REMARK    4  A    between atoms: C_20  and  O_5 
REMARK    5  A    between atoms: O_5  and  C_27 
REMARK    6  A    between atoms: C_17  and  O_6 
REMARK    7  A    between atoms: C_19  and  O_7 
REMARK    8  A    between atoms: C_22  and  O_8 
REMARK    9  A    between atoms: C_23  and  O_9 
REMARK   10  A    between atoms: O_10  and  C_25 
REMARK   11  A    between atoms: O_12  and  C_31 
REMARK   12  A    between atoms: O_14  and  C_41 
REMARK   13  A    between atoms: C_21  and  C_25 
REMARK   14  A    between atoms: C_34  and  C_36 
ROOT
ATOM      1  O   UNL d   1      42.951  42.372   6.130  0.00  0.00    -0.348 OA
ATOM      2  C   UNL d   1      43.066  42.482   7.855  0.00  0.00     0.211 A 
ATOM      3  C   UNL d   1      43.999  42.831   7.770  0.00  0.00     0.183 A 
ATOM      4  C   UNL d   1      44.409  42.949   6.866  0.00  0.00     0.180 A 
ATOM      5  C   UNL d   1      42.542  42.253   7.035  0.00  0.00     0.298 A 
ATOM      6  C   UNL d   1      43.884  42.720   6.046  0.00  0.00     0.179 A 
ENDROOT
BRANCH   5   7
ATOM      7  O   UNL d   1      41.608  41.905   7.119  0.00  0.00    -0.318 OA
BRANCH   7   8
ATOM      8  C   UNL d   1      40.874  42.304   6.571  0.00  0.00     0.077 A 
ATOM      9  C   UNL d   1      40.442  43.210   6.852  0.00  0.00     0.075 A 
ATOM     10  C   UNL d   1      39.678  43.617   6.273  0.00  0.00     0.095 A 
ATOM     11  O   UNL d   1      39.268  44.486   6.549  0.00  0.00    -0.309 OA
ATOM     12  C   UNL d   1      39.352  43.150   5.450  0.00  0.00     0.081 A 
ATOM     13  C   UNL d   1      38.533  44.889   6.003  0.00  0.00     0.090 A 
ATOM     14  C   UNL d   1      38.209  44.422   5.181  0.00  0.00     0.094 A 
ATOM     15  C   UNL d   1      38.618  43.553   4.904  0.00  0.00     0.190 A 
ATOM     16  O   UNL d   1      38.293  43.086   4.082  0.00  0.00    -0.287 OA
ATOM     17  C   UNL d   1      39.769  42.244   5.150  0.00  0.00     0.085 A 
ATOM     18  C   UNL d   1      40.535  41.818   5.714  0.00  0.00     0.074 A 
BRANCH  13  19
ATOM     19  C   UNL d   1      38.124  45.759   6.279  0.00  0.00    -0.002 A 
ATOM     20  C   UNL d   1      38.461  46.616   5.891  0.00  0.00     0.017 A 
ATOM     21  C   UNL d   1      38.051  47.485   6.168  0.00  0.00     0.037 A 
ATOM     22  C   UNL d   1      37.304  47.497   6.832  0.00  0.00     0.065 A 
ATOM     23  C   UNL d   1      36.966  46.639   7.219  0.00  0.00     0.037 A 
ATOM     24  C   UNL d   1      37.376  45.770   6.943  0.00  0.00     0.017 A 
BRANCH  22  25
ATOM     25  O   UNL d   1      36.894  48.367   7.108  0.00  0.00    -0.361 OA
ATOM     26  H   UNL d   1      37.188  48.733   7.512  0.00  0.00     0.217 HD
ENDBRANCH  22  25
ENDBRANCH  13  19
BRANCH  17  27
ATOM     27  O   UNL d   1      39.436  41.786   4.326  0.00  0.00    -0.360 OA
ATOM     28  H   UNL d   1      39.422  41.166   4.300  0.00  0.00     0.217 HD
ENDBRANCH  17  27
ENDBRANCH   7   8
ENDBRANCH   5   7
BRANCH   2  29
ATOM     29  O   UNL d   1      42.657  42.363   8.760  0.00  0.00    -0.346 OA
BRANCH  29  30
ATOM     30  C   UNL d   1      42.741  41.488   9.235  0.00  0.00     0.292 A 
ATOM     31  O   UNL d   1      43.357  40.784   8.882  0.00  0.00    -0.351 OA
ATOM     32  C   UNL d   1      43.441  39.908   9.358  0.00  0.00     0.152 A 
ATOM     33  C   UNL d   1      42.908  39.737  10.186  0.00  0.00     0.178 A 
ATOM     34  C   UNL d   1      44.058  39.205   9.004  0.00  0.00     0.042 C 
ATOM     35  C   UNL d   1      42.292  40.440  10.540  0.00  0.00     0.183 A 
ATOM     36  C   UNL d   1      42.208  41.316  10.064  0.00  0.00     0.204 A 
BRANCH  33  37
ATOM     37  O   UNL d   1      42.992  38.861  10.662  0.00  0.00    -0.390 OA
ATOM     38  H   UNL d   1      42.711  38.357  10.435  0.00  0.00     0.210 HD
ENDBRANCH  33  37
BRANCH  35  39
ATOM     39  O   UNL d   1      41.759  40.268  11.368  0.00  0.00    -0.390 OA
ATOM     40  H   UNL d   1      41.269  40.624  11.501  0.00  0.00     0.210 HD
ENDBRANCH  35  39
BRANCH  36  41
ATOM     41  O   UNL d   1      41.592  42.020  10.417  0.00  0.00    -0.388 OA
ATOM     42  H   UNL d   1      41.555  42.570  10.134  0.00  0.00     0.210 HD
ENDBRANCH  36  41
ENDBRANCH  29  30
ENDBRANCH   2  29
BRANCH   6  43
ATOM     43  C   UNL d   1      44.294  42.839   5.141  0.00  0.00     0.198 C 
BRANCH  43  44
ATOM     44  O   UNL d   1      43.843  42.457   4.334  0.00  0.00    -0.398 OA
ATOM     45  H   UNL d   1      44.065  42.578   3.768  0.00  0.00     0.209 HD
ENDBRANCH  43  44
ENDBRANCH   6  43
BRANCH   3  46
ATOM     46  O   UNL d   1      44.524  43.060   8.591  0.00  0.00    -0.390 OA
ATOM     47  H   UNL d   1      45.128  43.193   8.545  0.00  0.00     0.210 HD
ENDBRANCH   3  46
BRANCH   4  48
ATOM     48  O   UNL d   1      45.342  43.298   6.781  0.00  0.00    -0.390 OA
ATOM     49  H   UNL d   1      45.576  43.424   6.221  0.00  0.00     0.210 HD
ENDBRANCH   4  48
TORSDOF 14
ENDMDL
MODEL 5
REMARK VINA RESULT:    -7.634     24.754     27.373
REMARK INTER + INTRA:          -2.304
REMARK INTER:                 -12.049
REMARK INTRA:                   9.745
REMARK UNBOUND:                 9.793
REMARK  14 active torsions:
REMARK  status: ('A' for Active; 'I' for Inactive)
REMARK    1  A    between atoms: C_15  and  O_1 
REMARK    2  A    between atoms: C_18  and  O_1 
REMARK    3  A    between atoms: C_16  and  O_4 
REMARK    4  A    between atoms: C_20  and  O_5 
REMARK    5  A    between atoms: O_5  and  C_27 
REMARK    6  A    between atoms: C_17  and  O_6 
REMARK    7  A    between atoms: C_19  and  O_7 
REMARK    8  A    between atoms: C_22  and  O_8 
REMARK    9  A    between atoms: C_23  and  O_9 
REMARK   10  A    between atoms: O_10  and  C_25 
REMARK   11  A    between atoms: O_12  and  C_31 
REMARK   12  A    between atoms: O_14  and  C_41 
REMARK   13  A    between atoms: C_21  and  C_25 
REMARK   14  A    between atoms: C_34  and  C_36 
ROOT
ATOM      1  O   UNL d   1      47.362  30.640  22.235  0.00  0.00    -0.348 OA
ATOM      2  C   UNL d   1      45.738  30.294  21.741  0.00  0.00     0.211 A 
ATOM      3  C   UNL d   1      46.045  29.432  21.337  0.00  0.00     0.183 A 
ATOM      4  C   UNL d   1      47.010  29.174  21.383  0.00  0.00     0.180 A 
ATOM      5  C   UNL d   1      46.397  30.898  22.190  0.00  0.00     0.298 A 
ATOM      6  C   UNL d   1      47.668  29.778  21.832  0.00  0.00     0.179 A 
ENDROOT
BRANCH   5   7
ATOM      7  O   UNL d   1      46.090  31.760  22.593  0.00  0.00    -0.318 OA
BRANCH   7   8
ATOM      8  C   UNL d   1      46.645  32.210  23.293  0.00  0.00     0.077 A 
ATOM      9  C   UNL d   1      46.478  32.012  24.302  0.00  0.00     0.075 A 
ATOM     10  C   UNL d   1      47.061  32.486  25.023  0.00  0.00     0.095 A 
ATOM     11  O   UNL d   1      46.895  32.292  25.989  0.00  0.00    -0.309 OA
ATOM     12  C   UNL d   1      47.781  33.129  24.759  0.00  0.00     0.081 A 
ATOM     13  C   UNL d   1      47.448  32.740  26.692  0.00  0.00     0.090 A 
ATOM     14  C   UNL d   1      48.167  33.382  26.428  0.00  0.00     0.094 A 
ATOM     15  C   UNL d   1      48.333  33.577  25.462  0.00  0.00     0.190 A 
ATOM     16  O   UNL d   1      49.052  34.220  25.198  0.00  0.00    -0.287 OA
ATOM     17  C   UNL d   1      47.966  33.342  23.756  0.00  0.00     0.085 A 
ATOM     18  C   UNL d   1      47.394  32.880  23.019  0.00  0.00     0.074 A 
BRANCH  13  19
ATOM     19  C   UNL d   1      47.281  32.545  27.659  0.00  0.00    -0.002 A 
ATOM     20  C   UNL d   1      47.502  31.644  28.033  0.00  0.00     0.017 A 
ATOM     21  C   UNL d   1      47.335  31.450  29.000  0.00  0.00     0.037 A 
ATOM     22  C   UNL d   1      46.948  32.156  29.593  0.00  0.00     0.065 A 
ATOM     23  C   UNL d   1      46.728  33.057  29.218  0.00  0.00     0.037 A 
ATOM     24  C   UNL d   1      46.894  33.252  28.252  0.00  0.00     0.017 A 
BRANCH  22  25
ATOM     25  O   UNL d   1      46.782  31.961  30.559  0.00  0.00    -0.361 OA
ATOM     26  H   UNL d   1      46.390  32.315  30.884  0.00  0.00     0.217 HD
ENDBRANCH  22  25
ENDBRANCH  13  19
BRANCH  17  27
ATOM     27  O   UNL d   1      48.688  33.987  23.504  0.00  0.00    -0.360 OA
ATOM     28  H   UNL d   1      48.597  34.387  23.039  0.00  0.00     0.217 HD
ENDBRANCH  17  27
ENDBRANCH   7   8
ENDBRANCH   5   7
BRANCH   2  29
ATOM     29  O   UNL d   1      44.773  30.552  21.695  0.00  0.00    -0.346 OA
BRANCH  29  30
ATOM     30  C   UNL d   1      44.157  30.319  22.447  0.00  0.00     0.292 A 
ATOM     31  O   UNL d   1      44.365  29.542  23.041  0.00  0.00    -0.351 OA
ATOM     32  C   UNL d   1      43.749  29.308  23.794  0.00  0.00     0.152 A 
ATOM     33  C   UNL d   1      42.925  29.852  23.952  0.00  0.00     0.178 A 
ATOM     34  C   UNL d   1      43.957  28.531  24.387  0.00  0.00     0.042 C 
ATOM     35  C   UNL d   1      42.717  30.630  23.358  0.00  0.00     0.183 A 
ATOM     36  C   UNL d   1      43.333  30.863  22.606  0.00  0.00     0.204 A 
BRANCH  33  37
ATOM     37  O   UNL d   1      42.309  29.619  24.705  0.00  0.00    -0.390 OA
ATOM     38  H   UNL d   1      42.273  29.988  25.201  0.00  0.00     0.210 HD
ENDBRANCH  33  37
BRANCH  35  39
ATOM     39  O   UNL d   1      41.893  31.174  23.517  0.00  0.00    -0.390 OA
ATOM     40  H   UNL d   1      41.372  31.044  23.208  0.00  0.00     0.210 HD
ENDBRANCH  35  39
BRANCH  36  41
ATOM     41  O   UNL d   1      43.126  31.640  22.012  0.00  0.00    -0.388 OA
ATOM     42  H   UNL d   1      42.633  31.620  21.636  0.00  0.00     0.210 HD
ENDBRANCH  36  41
ENDBRANCH  29  30
ENDBRANCH   2  29
BRANCH   6  43
ATOM     43  C   UNL d   1      48.633  29.520  21.878  0.00  0.00     0.198 C 
BRANCH  43  44
ATOM     44  O   UNL d   1      49.208  29.864  22.620  0.00  0.00    -0.398 OA
ATOM     45  H   UNL d   1      48.967  29.953  23.184  0.00  0.00     0.209 HD
ENDBRANCH  43  44
ENDBRANCH   6  43
BRANCH   3  46
ATOM     46  O   UNL d   1      45.386  28.828  20.888  0.00  0.00    -0.390 OA
ATOM     47  H   UNL d   1      45.516  28.587  20.332  0.00  0.00     0.210 HD
ENDBRANCH   3  46
BRANCH   4  48
ATOM     48  O   UNL d   1      47.317  28.312  20.980  0.00  0.00    -0.390 OA
ATOM     49  H   UNL d   1      47.310  28.238  20.364  0.00  0.00     0.210 HD
ENDBRANCH   4  48
TORSDOF 14
ENDMDL
