MODEL 1
REMARK VINA RESULT:    -8.713      0.000      0.000
REMARK INTER + INTRA:          -8.700
REMARK INTER:                  -9.719
REMARK INTRA:                   1.018
REMARK UNBOUND:                 1.031
REMARK  3 active torsions:
REMARK  status: ('A' for Active; 'I' for Inactive)
REMARK    1  A    between atoms: O_2  and  C_10 
REMARK    2  A    between atoms: O_4  and  C_13 
REMARK    3  A    between atoms: C_7  and  C_9 
ROOT
ATOM      1  O   UNL d   1      13.745   6.154  32.227  0.00  0.00    -0.309 OA
ATOM      2  O   UNL d   1      12.576   6.197  29.464  0.00  0.00    -0.287 OA
ATOM      3  C   UNL d   1      12.955   5.338  30.919  0.00  0.00     0.081 A 
ATOM      4  C   UNL d   1      13.344   5.323  31.840  0.00  0.00     0.095 A 
ATOM      5  C   UNL d   1      13.755   6.999  31.693  0.00  0.00     0.090 A 
ATOM      6  C   UNL d   1      12.965   6.183  30.385  0.00  0.00     0.190 A 
ATOM      7  C   UNL d   1      12.534   4.480  30.504  0.00  0.00     0.085 A 
ATOM      8  C   UNL d   1      13.365   7.014  30.772  0.00  0.00     0.094 A 
ATOM      9  C   UNL d   1      13.341   4.450  32.409  0.00  0.00     0.075 A 
ATOM     10  C   UNL d   1      12.925   3.581  32.013  0.00  0.00     0.071 A 
ATOM     11  C   UNL d   1      12.520   3.596  31.054  0.00  0.00     0.074 A 
ENDROOT
BRANCH   5  12
ATOM     12  C   UNL d   1      14.155   7.830  32.079  0.00  0.00    -0.002 A 
ATOM     13  C   UNL d   1      15.149   7.942  32.103  0.00  0.00     0.014 A 
ATOM     14  C   UNL d   1      15.549   8.773  32.490  0.00  0.00     0.001 A 
ATOM     15  C   UNL d   1      14.956   9.492  32.852  0.00  0.00     0.000 A 
ATOM     16  C   UNL d   1      13.963   9.380  32.828  0.00  0.00     0.001 A 
ATOM     17  C   UNL d   1      13.562   8.549  32.442  0.00  0.00     0.014 A 
ENDBRANCH   5  12
BRANCH   7  18
ATOM     18  O   UNL d   1      12.148   4.506  29.582  0.00  0.00    -0.360 OA
ATOM     19  H   UNL d   1      11.867   4.005  29.350  0.00  0.00     0.217 HD
ENDBRANCH   7  18
BRANCH  10  20
ATOM     20  O   UNL d   1      12.917   2.738  32.551  0.00  0.00    -0.361 OA
ATOM     21  H   UNL d   1      13.423   2.565  32.865  0.00  0.00     0.217 HD
ENDBRANCH  10  20
TORSDOF 3
ENDMDL
MODEL 2
REMARK VINA RESULT:    -8.559      1.017      2.118
REMARK INTER + INTRA:          -8.529
REMARK INTER:                  -9.547
REMARK INTRA:                   1.018
REMARK UNBOUND:                 1.031
REMARK  3 active torsions:
REMARK  status: ('A' for Active; 'I' for Inactive)
REMARK    1  A    between atoms: O_2  and  C_10 
REMARK    2  A    between atoms: O_4  and  C_13 
REMARK    3  A    between atoms: C_7  and  C_9 
ROOT
ATOM      1  O   UNL d   1      13.436   6.939  30.668  0.00  0.00    -0.309 OA
ATOM      2  O   UNL d   1      13.232   4.443  32.320  0.00  0.00    -0.287 OA
ATOM      3  C   UNL d   1      13.039   5.259  30.804  0.00  0.00     0.081 A 
ATOM      4  C   UNL d   1      13.107   6.091  30.254  0.00  0.00     0.095 A 
ATOM      5  C   UNL d   1      13.698   6.955  31.633  0.00  0.00     0.090 A 
ATOM      6  C   UNL d   1      13.300   5.275  31.769  0.00  0.00     0.190 A 
ATOM      7  C   UNL d   1      12.698   4.368  30.386  0.00  0.00     0.085 A 
ATOM      8  C   UNL d   1      13.630   6.123  32.184  0.00  0.00     0.094 A 
ATOM      9  C   UNL d   1      12.838   6.089  29.247  0.00  0.00     0.075 A 
ATOM     10  C   UNL d   1      12.494   5.209  28.808  0.00  0.00     0.071 A 
ATOM     11  C   UNL d   1      12.423   4.343  29.382  0.00  0.00     0.074 A 
ENDROOT
BRANCH   5  12
ATOM     12  C   UNL d   1      14.027   7.804  32.047  0.00  0.00    -0.002 A 
ATOM     13  C   UNL d   1      15.006   7.935  32.207  0.00  0.00     0.014 A 
ATOM     14  C   UNL d   1      15.335   8.784  32.621  0.00  0.00     0.001 A 
ATOM     15  C   UNL d   1      14.686   9.500  32.876  0.00  0.00     0.000 A 
ATOM     16  C   UNL d   1      13.708   9.369  32.717  0.00  0.00     0.001 A 
ATOM     17  C   UNL d   1      13.378   8.520  32.303  0.00  0.00     0.014 A 
ENDBRANCH   5  12
BRANCH   7  18
ATOM     18  O   UNL d   1      12.634   3.542  30.947  0.00  0.00    -0.360 OA
ATOM     19  H   UNL d   1      13.050   3.438  31.394  0.00  0.00     0.217 HD
ENDBRANCH   7  18
BRANCH  10  20
ATOM     20  O   UNL d   1      12.233   5.197  27.843  0.00  0.00    -0.361 OA
ATOM     21  H   UNL d   1      11.917   5.673  27.602  0.00  0.00     0.217 HD
ENDBRANCH  10  20
TORSDOF 3
ENDMDL
MODEL 3
REMARK VINA RESULT:    -7.699      2.467      3.391
REMARK INTER + INTRA:          -7.568
REMARK INTER:                  -8.579
REMARK INTRA:                   1.011
REMARK UNBOUND:                 1.031
REMARK  3 active torsions:
REMARK  status: ('A' for Active; 'I' for Inactive)
REMARK    1  A    between atoms: O_2  and  C_10 
REMARK    2  A    between atoms: O_4  and  C_13 
REMARK    3  A    between atoms: C_7  and  C_9 
ROOT
ATOM      1  O   UNL d   1      14.691   5.799  32.970  0.00  0.00    -0.309 OA
ATOM      2  O   UNL d   1      14.368   8.731  32.419  0.00  0.00    -0.287 OA
ATOM      3  C   UNL d   1      13.957   7.085  32.069  0.00  0.00     0.081 A 
ATOM      4  C   UNL d   1      14.065   6.108  32.253  0.00  0.00     0.095 A 
ATOM      5  C   UNL d   1      15.208   6.468  33.503  0.00  0.00     0.090 A 
ATOM      6  C   UNL d   1      14.475   7.754  32.603  0.00  0.00     0.190 A 
ATOM      7  C   UNL d   1      13.310   7.420  31.326  0.00  0.00     0.085 A 
ATOM      8  C   UNL d   1      15.101   7.445  33.319  0.00  0.00     0.094 A 
ATOM      9  C   UNL d   1      13.532   5.399  31.706  0.00  0.00     0.075 A 
ATOM     10  C   UNL d   1      12.879   5.712  30.958  0.00  0.00     0.071 A 
ATOM     11  C   UNL d   1      12.767   6.729  30.767  0.00  0.00     0.074 A 
ENDROOT
BRANCH   5  12
ATOM     12  C   UNL d   1      15.834   6.160  34.219  0.00  0.00    -0.002 A 
ATOM     13  C   UNL d   1      16.747   5.831  33.979  0.00  0.00     0.014 A 
ATOM     14  C   UNL d   1      17.372   5.522  34.695  0.00  0.00     0.001 A 
ATOM     15  C   UNL d   1      17.085   5.544  35.653  0.00  0.00     0.000 A 
ATOM     16  C   UNL d   1      16.172   5.873  35.894  0.00  0.00     0.001 A 
ATOM     17  C   UNL d   1      15.547   6.181  35.177  0.00  0.00     0.014 A 
ENDBRANCH   5  12
BRANCH   7  18
ATOM     18  O   UNL d   1      13.210   8.400  31.151  0.00  0.00    -0.360 OA
ATOM     19  H   UNL d   1      13.643   8.702  30.827  0.00  0.00     0.217 HD
ENDBRANCH   7  18
BRANCH  10  20
ATOM     20  O   UNL d   1      12.363   5.040  30.427  0.00  0.00    -0.361 OA
ATOM     21  H   UNL d   1      12.505   4.940  29.832  0.00  0.00     0.217 HD
ENDBRANCH  10  20
TORSDOF 3
ENDMDL
MODEL 4
REMARK VINA RESULT:    -7.628      1.740      4.880
REMARK INTER + INTRA:          -7.489
REMARK INTER:                  -8.511
REMARK INTRA:                   1.022
REMARK UNBOUND:                 1.031
REMARK  3 active torsions:
REMARK  status: ('A' for Active; 'I' for Inactive)
REMARK    1  A    between atoms: O_2  and  C_10 
REMARK    2  A    between atoms: O_4  and  C_13 
REMARK    3  A    between atoms: C_7  and  C_9 
ROOT
ATOM      1  O   UNL d   1      13.560   6.074  32.167  0.00  0.00    -0.309 OA
ATOM      2  O   UNL d   1      15.992   6.790  33.770  0.00  0.00    -0.287 OA
ATOM      3  C   UNL d   1      14.593   7.273  32.870  0.00  0.00     0.081 A 
ATOM      4  C   UNL d   1      13.782   7.034  32.335  0.00  0.00     0.095 A 
ATOM      5  C   UNL d   1      14.148   5.352  32.533  0.00  0.00     0.090 A 
ATOM      6  C   UNL d   1      15.181   6.551  33.236  0.00  0.00     0.190 A 
ATOM      7  C   UNL d   1      14.837   8.268  33.053  0.00  0.00     0.085 A 
ATOM      8  C   UNL d   1      14.958   5.591  33.067  0.00  0.00     0.094 A 
ATOM      9  C   UNL d   1      13.160   7.774  31.948  0.00  0.00     0.075 A 
ATOM     10  C   UNL d   1      13.386   8.776  32.119  0.00  0.00     0.071 A 
ATOM     11  C   UNL d   1      14.230   9.025  32.675  0.00  0.00     0.074 A 
ENDROOT
BRANCH   5  12
ATOM     12  C   UNL d   1      13.925   4.392  32.364  0.00  0.00    -0.002 A 
ATOM     13  C   UNL d   1      13.185   3.954  32.874  0.00  0.00     0.014 A 
ATOM     14  C   UNL d   1      12.962   2.993  32.706  0.00  0.00     0.001 A 
ATOM     15  C   UNL d   1      13.479   2.472  32.027  0.00  0.00     0.000 A 
ATOM     16  C   UNL d   1      14.219   2.911  31.517  0.00  0.00     0.001 A 
ATOM     17  C   UNL d   1      14.442   3.871  31.685  0.00  0.00     0.014 A 
ENDBRANCH   5  12
BRANCH   7  18
ATOM     18  O   UNL d   1      15.651   8.496  33.589  0.00  0.00    -0.360 OA
ATOM     19  H   UNL d   1      15.772   8.188  34.113  0.00  0.00     0.217 HD
ENDBRANCH   7  18
BRANCH  10  20
ATOM     20  O   UNL d   1      12.795   9.495  31.751  0.00  0.00    -0.361 OA
ATOM     21  H   UNL d   1      12.791   9.611  31.142  0.00  0.00     0.217 HD
ENDBRANCH  10  20
TORSDOF 3
ENDMDL
MODEL 5
REMARK VINA RESULT:    -7.548      2.397      3.344
REMARK INTER + INTRA:          -7.399
REMARK INTER:                  -8.400
REMARK INTRA:                   1.001
REMARK UNBOUND:                 1.031
REMARK  3 active torsions:
REMARK  status: ('A' for Active; 'I' for Inactive)
REMARK    1  A    between atoms: O_2  and  C_10 
REMARK    2  A    between atoms: O_4  and  C_13 
REMARK    3  A    between atoms: C_7  and  C_9 
ROOT
ATOM      1  O   UNL d   1      14.565   6.750  29.487  0.00  0.00    -0.309 OA
ATOM      2  O   UNL d   1      14.291   3.838  30.157  0.00  0.00    -0.287 OA
ATOM      3  C   UNL d   1      14.606   5.088  29.000  0.00  0.00     0.081 A 
ATOM      4  C   UNL d   1      14.697   6.059  28.777  0.00  0.00     0.095 A 
ATOM      5  C   UNL d   1      14.342   6.470  30.421  0.00  0.00     0.090 A 
ATOM      6  C   UNL d   1      14.382   4.809  29.933  0.00  0.00     0.190 A 
ATOM      7  C   UNL d   1      14.741   4.357  28.270  0.00  0.00     0.085 A 
ATOM      8  C   UNL d   1      14.250   5.500  30.644  0.00  0.00     0.094 A 
ATOM      9  C   UNL d   1      14.930   6.365  27.808  0.00  0.00     0.075 A 
ATOM     10  C   UNL d   1      15.069   5.651  27.063  0.00  0.00     0.071 A 
ATOM     11  C   UNL d   1      14.974   4.641  27.295  0.00  0.00     0.074 A 
ENDROOT
BRANCH   5  12
ATOM     12  C   UNL d   1      14.210   7.161  31.131  0.00  0.00    -0.002 A 
ATOM     13  C   UNL d   1      14.996   7.512  31.640  0.00  0.00     0.014 A 
ATOM     14  C   UNL d   1      14.864   8.203  32.350  0.00  0.00     0.001 A 
ATOM     15  C   UNL d   1      13.945   8.543  32.553  0.00  0.00     0.000 A 
ATOM     16  C   UNL d   1      13.159   8.192  32.044  0.00  0.00     0.001 A 
ATOM     17  C   UNL d   1      13.291   7.501  31.334  0.00  0.00     0.014 A 
ENDBRANCH   5  12
BRANCH   7  18
ATOM     18  O   UNL d   1      14.647   3.390  28.505  0.00  0.00    -0.360 OA
ATOM     19  H   UNL d   1      14.366   3.225  29.032  0.00  0.00     0.217 HD
ENDBRANCH   7  18
BRANCH  10  20
ATOM     20  O   UNL d   1      15.293   5.935  26.130  0.00  0.00    -0.361 OA
ATOM     21  H   UNL d   1      15.635   6.443  26.035  0.00  0.00     0.217 HD
ENDBRANCH  10  20
TORSDOF 3
ENDMDL
