MODEL 1
REMARK VINA RESULT:    -7.565      0.000      0.000
REMARK INTER + INTRA:          -4.753
REMARK INTER:                  -9.913
REMARK INTRA:                   5.160
REMARK UNBOUND:                 5.022
REMARK  6 active torsions:
REMARK  status: ('A' for Active; 'I' for Inactive)
REMARK    1  A    between atoms: O_2  and  C_15 
REMARK    2  A    between atoms: O_3  and  C_17 
REMARK    3  A    between atoms: O_4  and  C_11 
REMARK    4  A    between atoms: O_6  and  C_22 
REMARK    5  A    between atoms: O_7  and  C_20 
REMARK    6  A    between atoms: C_10  and  C_13 
ROOT
ATOM      1  O   UNL d   1      19.686  17.190  12.447  0.00  0.00    -0.309 OA
ATOM      2  O   UNL d   1      20.913  17.565  15.234  0.00  0.00    -0.287 OA
ATOM      3  C   UNL d   1      21.112  17.407  13.483  0.00  0.00     0.084 A 
ATOM      4  C   UNL d   1      20.715  17.285  12.573  0.00  0.00     0.096 A 
ATOM      5  C   UNL d   1      19.061  17.221  13.280  0.00  0.00     0.090 A 
ATOM      6  C   UNL d   1      22.102  17.498  13.589  0.00  0.00     0.119 A 
ATOM      7  C   UNL d   1      20.506  17.442  14.329  0.00  0.00     0.190 A 
ATOM      8  C   UNL d   1      21.309  17.254  11.769  0.00  0.00     0.078 A 
ATOM      9  C   UNL d   1      22.696  17.467  12.785  0.00  0.00     0.136 A 
ATOM     10  C   UNL d   1      19.474  17.349  14.228  0.00  0.00     0.094 A 
ATOM     11  C   UNL d   1      22.299  17.344  11.875  0.00  0.00     0.107 A 
ENDROOT
BRANCH   5  12
ATOM     12  C   UNL d   1      18.071  17.131  13.170  0.00  0.00     0.001 A 
ATOM     13  C   UNL d   1      17.460  17.821  13.558  0.00  0.00     0.053 A 
ATOM     14  C   UNL d   1      16.470  17.731  13.449  0.00  0.00     0.099 A 
ATOM     15  C   UNL d   1      16.091  16.949  12.952  0.00  0.00     0.101 A 
ATOM     16  C   UNL d   1      16.702  16.259  12.564  0.00  0.00     0.040 A 
ATOM     17  C   UNL d   1      17.692  16.350  12.673  0.00  0.00     0.017 A 
BRANCH  14  18
ATOM     18  O   UNL d   1      15.858  18.420  13.836  0.00  0.00    -0.358 OA
ATOM     19  H   UNL d   1      15.961  19.021  13.730  0.00  0.00     0.217 HD
ENDBRANCH  14  18
BRANCH  15  20
ATOM     20  O   UNL d   1      15.102  16.859  12.843  0.00  0.00    -0.353 OA
ATOM     21  C   UNL d   1      14.712  16.002  12.505  0.00  0.00     0.210 C 
ENDBRANCH  15  20
ENDBRANCH   5  12
BRANCH   6  22
ATOM     22  O   UNL d   1      22.499  17.620  14.499  0.00  0.00    -0.357 OA
ATOM     23  H   UNL d   1      22.219  17.988  14.912  0.00  0.00     0.218 HD
ENDBRANCH   6  22
BRANCH  11  24
ATOM     24  O   UNL d   1      22.893  17.313  11.071  0.00  0.00    -0.353 OA
ATOM     25  C   UNL d   1      22.559  16.912  10.218  0.00  0.00     0.210 C 
ENDBRANCH  11  24
BRANCH   9  26
ATOM     26  O   UNL d   1      23.686  17.557  12.891  0.00  0.00    -0.351 OA
ATOM     27  C   UNL d   1      24.098  18.464  12.979  0.00  0.00     0.210 C 
ENDBRANCH   9  26
TORSDOF 6
ENDMDL
MODEL 2
REMARK VINA RESULT:    -7.398     25.796     27.325
REMARK INTER + INTRA:          -4.538
REMARK INTER:                  -9.547
REMARK INTRA:                   5.009
REMARK UNBOUND:                 5.022
REMARK  6 active torsions:
REMARK  status: ('A' for Active; 'I' for Inactive)
REMARK    1  A    between atoms: O_2  and  C_15 
REMARK    2  A    between atoms: O_3  and  C_17 
REMARK    3  A    between atoms: O_4  and  C_11 
REMARK    4  A    between atoms: O_6  and  C_22 
REMARK    5  A    between atoms: O_7  and  C_20 
REMARK    6  A    between atoms: C_10  and  C_13 
ROOT
ATOM      1  O   UNL d   1      26.818  37.870  30.114  0.00  0.00    -0.309 OA
ATOM      2  O   UNL d   1      27.360  35.021  29.110  0.00  0.00    -0.287 OA
ATOM      3  C   UNL d   1      27.754  36.747  29.107  0.00  0.00     0.084 A 
ATOM      4  C   UNL d   1      27.580  37.676  29.432  0.00  0.00     0.096 A 
ATOM      5  C   UNL d   1      26.228  37.086  30.463  0.00  0.00     0.090 A 
ATOM      6  C   UNL d   1      28.489  36.575  28.451  0.00  0.00     0.119 A 
ATOM      7  C   UNL d   1      27.177  35.947  29.442  0.00  0.00     0.190 A 
ATOM      8  C   UNL d   1      28.142  38.434  29.101  0.00  0.00     0.078 A 
ATOM      9  C   UNL d   1      29.051  37.334  28.120  0.00  0.00     0.136 A 
ATOM     10  C   UNL d   1      26.409  36.117  30.125  0.00  0.00     0.094 A 
ATOM     11  C   UNL d   1      28.877  38.263  28.445  0.00  0.00     0.107 A 
ENDROOT
BRANCH   5  12
ATOM     12  C   UNL d   1      25.494  37.260  31.119  0.00  0.00     0.001 A 
ATOM     13  C   UNL d   1      24.557  37.392  30.796  0.00  0.00     0.053 A 
ATOM     14  C   UNL d   1      23.821  37.566  31.451  0.00  0.00     0.099 A 
ATOM     15  C   UNL d   1      24.024  37.610  32.429  0.00  0.00     0.101 A 
ATOM     16  C   UNL d   1      24.961  37.479  32.752  0.00  0.00     0.040 A 
ATOM     17  C   UNL d   1      25.696  37.304  32.097  0.00  0.00     0.017 A 
BRANCH  14  18
ATOM     18  O   UNL d   1      22.884  37.698  31.129  0.00  0.00    -0.358 OA
ATOM     19  H   UNL d   1      22.681  38.265  30.986  0.00  0.00     0.217 HD
ENDBRANCH  14  18
BRANCH  15  20
ATOM     20  O   UNL d   1      23.290  37.785  33.085  0.00  0.00    -0.353 OA
ATOM     21  C   UNL d   1      23.480  37.769  34.066  0.00  0.00     0.210 C 
ENDBRANCH  15  20
ENDBRANCH   5  12
BRANCH   6  22
ATOM     22  O   UNL d   1      28.663  35.646  28.126  0.00  0.00    -0.357 OA
ATOM     23  H   UNL d   1      28.259  35.370  27.745  0.00  0.00     0.218 HD
ENDBRANCH   6  22
BRANCH  11  24
ATOM     24  O   UNL d   1      29.439  39.022  28.115  0.00  0.00    -0.353 OA
ATOM     25  C   UNL d   1      29.453  39.888  28.613  0.00  0.00     0.210 C 
ENDBRANCH  11  24
BRANCH   9  26
ATOM     26  O   UNL d   1      29.786  37.162  27.465  0.00  0.00    -0.351 OA
ATOM     27  C   UNL d   1      29.579  37.086  26.490  0.00  0.00     0.210 C 
ENDBRANCH   9  26
TORSDOF 6
ENDMDL
MODEL 3
REMARK VINA RESULT:    -7.374     16.724     18.065
REMARK INTER + INTRA:          -4.507
REMARK INTER:                  -9.670
REMARK INTRA:                   5.162
REMARK UNBOUND:                 5.022
REMARK  6 active torsions:
REMARK  status: ('A' for Active; 'I' for Inactive)
REMARK    1  A    between atoms: O_2  and  C_15 
REMARK    2  A    between atoms: O_3  and  C_17 
REMARK    3  A    between atoms: O_4  and  C_11 
REMARK    4  A    between atoms: O_6  and  C_22 
REMARK    5  A    between atoms: O_7  and  C_20 
REMARK    6  A    between atoms: C_10  and  C_13 
ROOT
ATOM      1  O   UNL d   1      22.894  34.564  17.067  0.00  0.00    -0.309 OA
ATOM      2  O   UNL d   1      25.139  33.731  15.147  0.00  0.00    -0.287 OA
ATOM      3  C   UNL d   1      24.172  35.000  15.912  0.00  0.00     0.084 A 
ATOM      4  C   UNL d   1      23.441  35.275  16.537  0.00  0.00     0.096 A 
ATOM      5  C   UNL d   1      23.112  33.553  16.945  0.00  0.00     0.090 A 
ATOM      6  C   UNL d   1      24.688  35.693  15.410  0.00  0.00     0.119 A 
ATOM      7  C   UNL d   1      24.406  33.994  15.775  0.00  0.00     0.190 A 
ATOM      8  C   UNL d   1      23.226  36.244  16.659  0.00  0.00     0.078 A 
ATOM      9  C   UNL d   1      24.473  36.662  15.532  0.00  0.00     0.136 A 
ATOM     10  C   UNL d   1      23.874  33.266  16.294  0.00  0.00     0.094 A 
ATOM     11  C   UNL d   1      23.742  36.938  16.157  0.00  0.00     0.107 A 
ENDROOT
BRANCH   5  12
ATOM     12  C   UNL d   1      22.594  32.862  17.449  0.00  0.00     0.001 A 
ATOM     13  C   UNL d   1      21.601  32.811  17.349  0.00  0.00     0.053 A 
ATOM     14  C   UNL d   1      21.082  32.120  17.853  0.00  0.00     0.099 A 
ATOM     15  C   UNL d   1      21.558  31.480  18.457  0.00  0.00     0.101 A 
ATOM     16  C   UNL d   1      22.551  31.531  18.557  0.00  0.00     0.040 A 
ATOM     17  C   UNL d   1      23.069  32.222  18.053  0.00  0.00     0.017 A 
BRANCH  14  18
ATOM     18  O   UNL d   1      20.088  32.068  17.753  0.00  0.00    -0.358 OA
ATOM     19  H   UNL d   1      19.761  31.678  18.106  0.00  0.00     0.217 HD
ENDBRANCH  14  18
BRANCH  15  20
ATOM     20  O   UNL d   1      21.040  30.789  18.960  0.00  0.00    -0.353 OA
ATOM     21  C   UNL d   1      21.519  30.052  19.437  0.00  0.00     0.210 C 
ENDBRANCH  15  20
ENDBRANCH   5  12
BRANCH   6  22
ATOM     22  O   UNL d   1      25.418  35.418  14.785  0.00  0.00    -0.357 OA
ATOM     23  H   UNL d   1      25.937  35.755  14.747  0.00  0.00     0.218 HD
ENDBRANCH   6  22
BRANCH  11  24
ATOM     24  O   UNL d   1      23.528  37.907  16.279  0.00  0.00    -0.353 OA
ATOM     25  C   UNL d   1      23.156  38.230  17.149  0.00  0.00     0.210 C 
ENDBRANCH  11  24
BRANCH   9  26
ATOM     26  O   UNL d   1      24.989  37.356  15.030  0.00  0.00    -0.351 OA
ATOM     27  C   UNL d   1      24.763  37.554  14.076  0.00  0.00     0.210 C 
ENDBRANCH   9  26
TORSDOF 6
ENDMDL
MODEL 4
REMARK VINA RESULT:    -7.338     21.581     22.955
REMARK INTER + INTRA:          -4.461
REMARK INTER:                  -9.655
REMARK INTRA:                   5.194
REMARK UNBOUND:                 5.022
REMARK  6 active torsions:
REMARK  status: ('A' for Active; 'I' for Inactive)
REMARK    1  A    between atoms: O_2  and  C_15 
REMARK    2  A    between atoms: O_3  and  C_17 
REMARK    3  A    between atoms: O_4  and  C_11 
REMARK    4  A    between atoms: O_6  and  C_22 
REMARK    5  A    between atoms: O_7  and  C_20 
REMARK    6  A    between atoms: C_10  and  C_13 
ROOT
ATOM      1  O   UNL d   1      15.458  28.387  33.072  0.00  0.00    -0.309 OA
ATOM      2  O   UNL d   1      17.190  28.528  30.542  0.00  0.00    -0.287 OA
ATOM      3  C   UNL d   1      17.011  28.747  32.288  0.00  0.00     0.084 A 
ATOM      4  C   UNL d   1      16.450  28.703  33.115  0.00  0.00     0.096 A 
ATOM      5  C   UNL d   1      15.045  28.115  32.155  0.00  0.00     0.090 A 
ATOM      6  C   UNL d   1      17.962  29.052  32.345  0.00  0.00     0.119 A 
ATOM      7  C   UNL d   1      16.619  28.479  31.362  0.00  0.00     0.190 A 
ATOM      8  C   UNL d   1      16.840  28.963  33.998  0.00  0.00     0.078 A 
ATOM      9  C   UNL d   1      18.351  29.312  33.229  0.00  0.00     0.136 A 
ATOM     10  C   UNL d   1      15.630  28.161  31.294  0.00  0.00     0.094 A 
ATOM     11  C   UNL d   1      17.790  29.268  34.055  0.00  0.00     0.107 A 
ENDROOT
BRANCH   5  12
ATOM     12  C   UNL d   1      14.095  27.810  32.101  0.00  0.00     0.001 A 
ATOM     13  C   UNL d   1      13.865  26.972  31.607  0.00  0.00     0.053 A 
ATOM     14  C   UNL d   1      12.914  26.667  31.553  0.00  0.00     0.099 A 
ATOM     15  C   UNL d   1      12.193  27.201  31.994  0.00  0.00     0.101 A 
ATOM     16  C   UNL d   1      12.422  28.039  32.489  0.00  0.00     0.040 A 
ATOM     17  C   UNL d   1      13.373  28.343  32.542  0.00  0.00     0.017 A 
BRANCH  14  18
ATOM     18  O   UNL d   1      12.684  25.829  31.058  0.00  0.00    -0.358 OA
ATOM     19  H   UNL d   1      12.541  25.853  30.456  0.00  0.00     0.217 HD
ENDBRANCH  14  18
BRANCH  15  20
ATOM     20  O   UNL d   1      11.242  26.897  31.941  0.00  0.00    -0.353 OA
ATOM     21  C   UNL d   1      10.499  27.545  32.105  0.00  0.00     0.210 C 
ENDBRANCH  15  20
ENDBRANCH   5  12
BRANCH   6  22
ATOM     22  O   UNL d   1      18.523  29.097  31.519  0.00  0.00    -0.357 OA
ATOM     23  H   UNL d   1      18.709  28.574  31.242  0.00  0.00     0.218 HD
ENDBRANCH   6  22
BRANCH  11  24
ATOM     24  O   UNL d   1      18.180  29.528  34.939  0.00  0.00    -0.353 OA
ATOM     25  C   UNL d   1      17.579  29.692  35.721  0.00  0.00     0.210 C 
ENDBRANCH  11  24
BRANCH   9  26
ATOM     26  O   UNL d   1      19.302  29.617  33.286  0.00  0.00    -0.351 OA
ATOM     27  C   UNL d   1      20.040  28.945  33.342  0.00  0.00     0.210 C 
ENDBRANCH   9  26
TORSDOF 6
ENDMDL
MODEL 5
REMARK VINA RESULT:    -7.299     22.272     24.242
REMARK INTER + INTRA:          -4.411
REMARK INTER:                  -9.448
REMARK INTRA:                   5.037
REMARK UNBOUND:                 5.022
REMARK  6 active torsions:
REMARK  status: ('A' for Active; 'I' for Inactive)
REMARK    1  A    between atoms: O_2  and  C_15 
REMARK    2  A    between atoms: O_3  and  C_17 
REMARK    3  A    between atoms: O_4  and  C_11 
REMARK    4  A    between atoms: O_6  and  C_22 
REMARK    5  A    between atoms: O_7  and  C_20 
REMARK    6  A    between atoms: C_10  and  C_13 
ROOT
ATOM      1  O   UNL d   1      28.082  11.284  34.136  0.00  0.00    -0.309 OA
ATOM      2  O   UNL d   1      28.947   8.380  33.646  0.00  0.00    -0.287 OA
ATOM      3  C   UNL d   1      28.010   9.801  33.161  0.00  0.00     0.084 A 
ATOM      4  C   UNL d   1      27.726  10.747  33.317  0.00  0.00     0.096 A 
ATOM      5  C   UNL d   1      28.742  10.829  34.801  0.00  0.00     0.090 A 
ATOM      6  C   UNL d   1      27.661   9.298  32.370  0.00  0.00     0.119 A 
ATOM      7  C   UNL d   1      28.669   9.327  33.812  0.00  0.00     0.190 A 
ATOM      8  C   UNL d   1      27.093  11.190  32.683  0.00  0.00     0.078 A 
ATOM      9  C   UNL d   1      27.027   9.741  31.736  0.00  0.00     0.136 A 
ATOM     10  C   UNL d   1      29.038   9.843  34.638  0.00  0.00     0.094 A 
ATOM     11  C   UNL d   1      26.743  10.687  31.892  0.00  0.00     0.107 A 
ENDROOT
BRANCH   5  12
ATOM     12  C   UNL d   1      29.090  11.335  35.590  0.00  0.00     0.001 A 
ATOM     13  C   UNL d   1      29.780  12.047  35.462  0.00  0.00     0.053 A 
ATOM     14  C   UNL d   1      30.129  12.553  36.251  0.00  0.00     0.099 A 
ATOM     15  C   UNL d   1      29.786  12.347  37.168  0.00  0.00     0.101 A 
ATOM     16  C   UNL d   1      29.095  11.635  37.296  0.00  0.00     0.040 A 
ATOM     17  C   UNL d   1      28.748  11.129  36.506  0.00  0.00     0.017 A 
BRANCH  14  18
ATOM     18  O   UNL d   1      30.819  13.265  36.125  0.00  0.00    -0.358 OA
ATOM     19  H   UNL d   1      31.006  13.606  36.607  0.00  0.00     0.217 HD
ENDBRANCH  14  18
BRANCH  15  20
ATOM     20  O   UNL d   1      30.133  12.853  37.957  0.00  0.00    -0.353 OA
ATOM     21  C   UNL d   1      29.839  12.605  38.880  0.00  0.00     0.210 C 
ENDBRANCH  15  20
ENDBRANCH   5  12
BRANCH   6  22
ATOM     22  O   UNL d   1      27.945   8.352  32.214  0.00  0.00    -0.357 OA
ATOM     23  H   UNL d   1      27.793   8.066  31.685  0.00  0.00     0.218 HD
ENDBRANCH   6  22
BRANCH  11  24
ATOM     24  O   UNL d   1      26.109  11.130  31.258  0.00  0.00    -0.353 OA
ATOM     25  C   UNL d   1      25.718  12.023  31.484  0.00  0.00     0.210 C 
ENDBRANCH  11  24
BRANCH   9  26
ATOM     26  O   UNL d   1      26.677   9.238  30.946  0.00  0.00    -0.351 OA
ATOM     27  C   UNL d   1      27.251   9.120  30.135  0.00  0.00     0.210 C 
ENDBRANCH   9  26
TORSDOF 6
ENDMDL
