MODEL 1
REMARK VINA RESULT:   -11.172      0.000      0.000
REMARK INTER + INTRA:          49.674
REMARK INTER:                 -20.445
REMARK INTRA:                  70.119
REMARK UNBOUND:                69.989
REMARK  23 active torsions:
REMARK  status: ('A' for Active; 'I' for Inactive)
REMARK    1  A    between atoms: C_29  and  O_6 
REMARK    2  A    between atoms: C_32  and  O_7 
REMARK    3  A    between atoms: C_38  and  O_8 
REMARK    4  A    between atoms: O_10  and  C_47 
REMARK    5  A    between atoms: O_11  and  C_48 
REMARK    6  A    between atoms: O_12  and  C_51 
REMARK    7  A    between atoms: O_13  and  C_62 
REMARK    8  A    between atoms: O_14  and  C_63 
REMARK    9  A    between atoms: C_65  and  O_15 
REMARK   10  A    between atoms: O_16  and  C_69 
REMARK   11  A    between atoms: O_17  and  C_70 
REMARK   12  A    between atoms: O_18  and  C_71 
REMARK   13  A    between atoms: O_19  and  C_74 
REMARK   14  A    between atoms: O_20  and  C_75 
REMARK   15  A    between atoms: O_21  and  C_76 
REMARK   16  A    between atoms: O_22  and  C_79 
REMARK   17  A    between atoms: O_23  and  C_82 
REMARK   18  A    between atoms: O_24  and  C_84 
REMARK   19  A    between atoms: C_34  and  C_45 
REMARK   20  A    between atoms: C_35  and  C_46 
REMARK   21  A    between atoms: C_36  and  C_42 
REMARK   22  A    between atoms: C_41  and  C_49 
REMARK   23  A    between atoms: C_64  and  C_77 
ROOT
ATOM      1  O   UNL d   1       8.543  43.789  19.951  0.00  0.00    -0.305 OA
ATOM      2  O   UNL d   1      11.608  42.987  21.868  0.00  0.00    -0.305 OA
ATOM      3  O   UNL d   1       8.179  42.617  23.173  0.00  0.00    -0.337 OA
ATOM      4  O   UNL d   1      12.849  43.537  20.265  0.00  0.00    -0.306 OA
ATOM      5  O   UNL d   1       5.215  43.549  20.894  0.00  0.00    -0.306 OA
ATOM      6  C   UNL d   1      10.783  43.698  20.007  0.00  0.00     0.097 A 
ATOM      7  C   UNL d   1       7.060  43.427  21.067  0.00  0.00     0.097 A 
ATOM      8  C   UNL d   1      10.137  43.415  20.831  0.00  0.00     0.022 A 
ATOM      9  C   UNL d   1       8.489  43.233  21.469  0.00  0.00     0.021 A 
ATOM     10  C   UNL d   1      11.859  43.621  20.121  0.00  0.00     0.199 A 
ATOM     11  C   UNL d   1       9.103  43.488  20.723  0.00  0.00     0.092 A 
ATOM     12  C   UNL d   1       9.896  42.806  22.508  0.00  0.00     0.021 A 
ATOM     13  C   UNL d   1       6.909  44.121  19.192  0.00  0.00     0.199 A 
ATOM     14  C   UNL d   1      10.535  43.072  21.730  0.00  0.00     0.092 A 
ATOM     15  C   UNL d   1       6.514  43.731  20.286  0.00  0.00     0.231 A 
ATOM     16  C   UNL d   1      12.275  43.264  21.057  0.00  0.00     0.231 A 
ATOM     17  C   UNL d   1      10.311  42.449  23.445  0.00  0.00     0.094 A 
ATOM     18  C   UNL d   1       8.865  42.888  22.377  0.00  0.00     0.089 A 
ATOM     19  C   UNL d   1       9.644  42.172  24.255  0.00  0.00     0.165 A 
ATOM     20  C   UNL d   1      11.436  43.947  19.270  0.00  0.00     0.020 A 
ATOM     21  C   UNL d   1       6.098  43.057  22.157  0.00  0.00     0.020 A 
ATOM     22  C   UNL d   1       8.571  42.257  24.118  0.00  0.00     0.192 A 
ATOM     23  C   UNL d   1      12.442  43.870  19.395  0.00  0.00     0.085 A 
ATOM     24  C   UNL d   1       5.165  43.206  21.832  0.00  0.00     0.085 A 
ATOM     25  C   UNL d   1      11.103  44.266  18.433  0.00  0.00     0.078 A 
ATOM     26  C   UNL d   1       6.279  42.698  23.118  0.00  0.00     0.078 A 
ATOM     27  C   UNL d   1      13.014  44.117  18.670  0.00  0.00     0.074 A 
ATOM     28  C   UNL d   1       4.347  43.007  22.445  0.00  0.00     0.074 A 
ATOM     29  C   UNL d   1      11.703  44.505  17.729  0.00  0.00     0.073 A 
ATOM     30  C   UNL d   1       5.475  42.492  23.749  0.00  0.00     0.073 A 
ATOM     31  C   UNL d   1      12.648  44.432  17.846  0.00  0.00     0.071 A 
ATOM     32  C   UNL d   1       4.503  42.648  23.409  0.00  0.00     0.071 A 
ENDROOT
BRANCH  17  33
ATOM     33  C   UNL d   1      11.301  42.375  23.560  0.00  0.00     0.020 A 
ATOM     34  C   UNL d   1      11.765  41.511  23.358  0.00  0.00     0.088 A 
ATOM     35  O   UNL d   1      11.202  40.699  23.029  0.00  0.00    -0.337 OA
ATOM     36  C   UNL d   1      12.755  41.437  23.472  0.00  0.00     0.012 A 
ATOM     37  C   UNL d   1      11.678  39.797  22.817  0.00  0.00     0.191 A 
ATOM     38  C   UNL d   1      12.709  39.719  22.936  0.00  0.00     0.156 A 
ATOM     39  C   UNL d   1      13.252  40.545  23.266  0.00  0.00     0.079 A 
ATOM     40  C   UNL d   1      13.282  42.226  23.789  0.00  0.00     0.077 A 
ATOM     41  C   UNL d   1      12.820  43.089  23.991  0.00  0.00     0.074 A 
ATOM     42  C   UNL d   1      11.829  43.163  23.876  0.00  0.00     0.078 A 
BRANCH  37  43
ATOM     43  C   UNL d   1      11.147  39.010  22.501  0.00  0.00    -0.024 A 
ATOM     44  C   UNL d   1      11.292  38.647  21.581  0.00  0.00     0.049 A 
ATOM     45  C   UNL d   1      10.761  37.861  21.263  0.00  0.00     0.099 A 
ATOM     46  C   UNL d   1      10.085  37.438  21.867  0.00  0.00     0.098 A 
ATOM     47  C   UNL d   1       9.940  37.802  22.787  0.00  0.00     0.040 A 
ATOM     48  C   UNL d   1      10.471  38.588  23.104  0.00  0.00     0.013 A 
BRANCH  45  49
ATOM     49  O   UNL d   1      10.907  37.498  20.343  0.00  0.00    -0.358 OA
ATOM     50  H   UNL d   1      10.884  36.886  20.244  0.00  0.00     0.217 HD
ENDBRANCH  45  49
BRANCH  46  51
ATOM     51  O   UNL d   1       9.554  36.653  21.551  0.00  0.00    -0.358 OA
ATOM     52  H   UNL d   1       8.980  36.559  21.768  0.00  0.00     0.217 HD
ENDBRANCH  46  51
ENDBRANCH  37  43
BRANCH  38  53
ATOM     53  O   UNL d   1      13.176  38.858  22.736  0.00  0.00    -0.392 OA
ATOM     54  H   UNL d   1      13.265  38.683  22.148  0.00  0.00     0.210 HD
ENDBRANCH  38  53
BRANCH  40  55
ATOM     55  O   UNL d   1      14.273  42.152  23.904  0.00  0.00    -0.360 OA
ATOM     56  H   UNL d   1      14.606  42.652  24.058  0.00  0.00     0.217 HD
ENDBRANCH  40  55
BRANCH  42  57
ATOM     57  O   UNL d   1      10.911  43.560  23.871  0.00  0.00    -0.360 OA
ATOM     58  H   UNL d   1      10.837  44.169  23.958  0.00  0.00     0.217 HD
ENDBRANCH  42  57
ENDBRANCH  17  33
BRANCH  19  59
ATOM     59  O   UNL d   1      10.016  41.842  25.122  0.00  0.00    -0.392 OA
ATOM     60  H   UNL d   1       9.841  42.104  25.656  0.00  0.00     0.210 HD
ENDBRANCH  19  59
BRANCH  22  61
ATOM     61  C   UNL d   1       7.948  42.005  24.859  0.00  0.00    -0.024 A 
ATOM     62  C   UNL d   1       7.616  41.065  24.933  0.00  0.00     0.049 A 
ATOM     63  C   UNL d   1       6.992  40.812  25.674  0.00  0.00     0.099 A 
ATOM     64  C   UNL d   1       6.702  41.500  26.338  0.00  0.00     0.098 A 
ATOM     65  C   UNL d   1       7.034  42.440  26.264  0.00  0.00     0.040 A 
ATOM     66  C   UNL d   1       7.657  42.693  25.523  0.00  0.00     0.013 A 
BRANCH  63  67
ATOM     67  O   UNL d   1       6.660  39.872  25.750  0.00  0.00    -0.358 OA
ATOM     68  H   UNL d   1       6.059  39.763  25.854  0.00  0.00     0.217 HD
ENDBRANCH  63  67
BRANCH  64  69
ATOM     69  O   UNL d   1       6.078  41.249  27.079  0.00  0.00    -0.358 OA
ATOM     70  H   UNL d   1       5.880  41.680  27.478  0.00  0.00     0.217 HD
ENDBRANCH  64  69
ENDBRANCH  22  61
BRANCH  16  71
ATOM     71  C   UNL d   1      13.268  43.199  21.148  0.00  0.00     0.010 A 
ATOM     72  C   UNL d   1      13.783  43.950  21.561  0.00  0.00     0.052 A 
ATOM     73  C   UNL d   1      14.776  43.885  21.652  0.00  0.00     0.099 A 
ATOM     74  C   UNL d   1      15.255  43.069  21.330  0.00  0.00     0.098 A 
ATOM     75  C   UNL d   1      14.741  42.317  20.917  0.00  0.00     0.040 A 
ATOM     76  C   UNL d   1      13.748  42.382  20.826  0.00  0.00     0.015 A 
BRANCH  73  77
ATOM     77  O   UNL d   1      15.291  44.637  22.065  0.00  0.00    -0.358 OA
ATOM     78  H   UNL d   1      15.648  44.531  22.561  0.00  0.00     0.217 HD
ENDBRANCH  73  77
BRANCH  74  79
ATOM     79  O   UNL d   1      16.250  43.003  21.421  0.00  0.00    -0.358 OA
ATOM     80  H   UNL d   1      16.613  43.114  20.932  0.00  0.00     0.217 HD
ENDBRANCH  74  79
ENDBRANCH  16  71
BRANCH  10  81
ATOM     81  O   UNL d   1      12.781  43.729  19.748  0.00  0.00    -0.389 OA
ATOM     82  H   UNL d   1      13.229  43.545  19.361  0.00  0.00     0.210 HD
ENDBRANCH  10  81
BRANCH  13  83
ATOM     83  O   UNL d   1       7.115  44.453  18.271  0.00  0.00    -0.389 OA
ATOM     84  H   UNL d   1       7.473  44.116  17.893  0.00  0.00     0.210 HD
ENDBRANCH  13  83
BRANCH  25  85
ATOM     85  O   UNL d   1      10.117  44.349  18.292  0.00  0.00    -0.360 OA
ATOM     86  H   UNL d   1       9.728  43.969  18.590  0.00  0.00     0.217 HD
ENDBRANCH  25  85
BRANCH  15  87
ATOM     87  C   UNL d   1       5.969  44.036  19.506  0.00  0.00     0.010 A 
ATOM     88  C   UNL d   1       5.608  43.366  18.857  0.00  0.00     0.052 A 
ATOM     89  C   UNL d   1       5.063  43.670  18.076  0.00  0.00     0.099 A 
ATOM     90  C   UNL d   1       4.877  44.644  17.945  0.00  0.00     0.098 A 
ATOM     91  C   UNL d   1       5.238  45.314  18.594  0.00  0.00     0.040 A 
ATOM     92  C   UNL d   1       5.784  45.009  19.374  0.00  0.00     0.015 A 
BRANCH  89  93
ATOM     93  O   UNL d   1       4.702  43.001  17.426  0.00  0.00    -0.358 OA
ATOM     94  H   UNL d   1       4.640  42.408  17.595  0.00  0.00     0.217 HD
ENDBRANCH  89  93
BRANCH  90  95
ATOM     95  O   UNL d   1       4.332  44.948  17.164  0.00  0.00    -0.358 OA
ATOM     96  H   UNL d   1       3.952  44.550  16.876  0.00  0.00     0.217 HD
ENDBRANCH  90  95
ENDBRANCH  15  87
BRANCH  26  97
ATOM     97  O   UNL d   1       7.216  42.552  23.433  0.00  0.00    -0.360 OA
ATOM     98  H   UNL d   1       7.340  42.100  23.840  0.00  0.00     0.217 HD
ENDBRANCH  26  97
BRANCH  31  99
ATOM     99  O   UNL d   1      13.261  44.687  17.099  0.00  0.00    -0.361 OA
ATOM    100  H   UNL d   1      13.430  45.279  17.025  0.00  0.00     0.217 HD
ENDBRANCH  31  99
BRANCH  32 101
ATOM    101  O   UNL d   1       3.725  42.453  24.006  0.00  0.00    -0.361 OA
ATOM    102  H   UNL d   1       3.275  42.874  24.076  0.00  0.00     0.217 HD
ENDBRANCH  32 101
TORSDOF 23
ENDMDL
MODEL 2
REMARK VINA RESULT:   -10.594      1.747      7.087
REMARK INTER + INTRA:          50.725
REMARK INTER:                 -19.652
REMARK INTRA:                  70.377
REMARK UNBOUND:                69.989
REMARK  23 active torsions:
REMARK  status: ('A' for Active; 'I' for Inactive)
REMARK    1  A    between atoms: C_29  and  O_6 
REMARK    2  A    between atoms: C_32  and  O_7 
REMARK    3  A    between atoms: C_38  and  O_8 
REMARK    4  A    between atoms: O_10  and  C_47 
REMARK    5  A    between atoms: O_11  and  C_48 
REMARK    6  A    between atoms: O_12  and  C_51 
REMARK    7  A    between atoms: O_13  and  C_62 
REMARK    8  A    between atoms: O_14  and  C_63 
REMARK    9  A    between atoms: C_65  and  O_15 
REMARK   10  A    between atoms: O_16  and  C_69 
REMARK   11  A    between atoms: O_17  and  C_70 
REMARK   12  A    between atoms: O_18  and  C_71 
REMARK   13  A    between atoms: O_19  and  C_74 
REMARK   14  A    between atoms: O_20  and  C_75 
REMARK   15  A    between atoms: O_21  and  C_76 
REMARK   16  A    between atoms: O_22  and  C_79 
REMARK   17  A    between atoms: O_23  and  C_82 
REMARK   18  A    between atoms: O_24  and  C_84 
REMARK   19  A    between atoms: C_34  and  C_45 
REMARK   20  A    between atoms: C_35  and  C_46 
REMARK   21  A    between atoms: C_36  and  C_42 
REMARK   22  A    between atoms: C_41  and  C_49 
REMARK   23  A    between atoms: C_64  and  C_77 
ROOT
ATOM      1  O   UNL d   1      10.586  43.177  20.802  0.00  0.00    -0.305 OA
ATOM      2  O   UNL d   1       7.018  42.706  21.675  0.00  0.00    -0.305 OA
ATOM      3  O   UNL d   1       9.699  40.315  22.507  0.00  0.00    -0.337 OA
ATOM      4  O   UNL d   1       6.477  44.528  20.782  0.00  0.00    -0.306 OA
ATOM      5  O   UNL d   1      13.310  41.130  21.440  0.00  0.00    -0.306 OA
ATOM      6  C   UNL d   1       8.490  43.971  20.735  0.00  0.00     0.097 A 
ATOM      7  C   UNL d   1      11.535  41.676  21.451  0.00  0.00     0.097 A 
ATOM      8  C   UNL d   1       8.775  43.030  21.195  0.00  0.00     0.022 A 
ATOM      9  C   UNL d   1      10.059  41.872  21.601  0.00  0.00     0.021 A 
ATOM     10  C   UNL d   1       7.450  44.278  20.749  0.00  0.00     0.199 A 
ATOM     11  C   UNL d   1       9.773  42.735  21.183  0.00  0.00     0.092 A 
ATOM     12  C   UNL d   1       8.361  41.521  22.085  0.00  0.00     0.021 A 
ATOM     13  C   UNL d   1      12.388  43.206  20.474  0.00  0.00     0.199 A 
ATOM     14  C   UNL d   1       8.065  42.419  21.650  0.00  0.00     0.092 A 
ATOM     15  C   UNL d   1      12.338  42.132  21.065  0.00  0.00     0.231 A 
ATOM     16  C   UNL d   1       6.708  43.643  21.222  0.00  0.00     0.231 A 
ATOM     17  C   UNL d   1       7.620  40.885  22.558  0.00  0.00     0.094 A 
ATOM     18  C   UNL d   1       9.366  41.246  22.061  0.00  0.00     0.089 A 
ATOM     19  C   UNL d   1       7.931  39.949  23.012  0.00  0.00     0.165 A 
ATOM     20  C   UNL d   1       8.164  44.839  20.321  0.00  0.00     0.020 A 
ATOM     21  C   UNL d   1      12.012  40.393  22.064  0.00  0.00     0.020 A 
ATOM     22  C   UNL d   1       8.976  39.662  22.986  0.00  0.00     0.192 A 
ATOM     23  C   UNL d   1       7.185  45.112  20.343  0.00  0.00     0.085 A 
ATOM     24  C   UNL d   1      13.001  40.318  21.934  0.00  0.00     0.085 A 
ATOM     25  C   UNL d   1       8.791  45.423  19.896  0.00  0.00     0.078 A 
ATOM     26  C   UNL d   1      11.480  39.648  22.560  0.00  0.00     0.078 A 
ATOM     27  C   UNL d   1       6.931  45.939  19.938  0.00  0.00     0.074 A 
ATOM     28  C   UNL d   1      13.526  39.492  22.290  0.00  0.00     0.074 A 
ATOM     29  C   UNL d   1       8.503  46.243  19.501  0.00  0.00     0.073 A 
ATOM     30  C   UNL d   1      11.985  38.812  22.926  0.00  0.00     0.073 A 
ATOM     31  C   UNL d   1       7.583  46.499  19.522  0.00  0.00     0.071 A 
ATOM     32  C   UNL d   1      13.015  38.734  22.789  0.00  0.00     0.071 A 
ENDROOT
BRANCH  17  33
ATOM     33  C   UNL d   1       6.660  41.159  22.576  0.00  0.00     0.020 A 
ATOM     34  C   UNL d   1       6.291  41.639  23.373  0.00  0.00     0.088 A 
ATOM     35  O   UNL d   1       6.922  41.845  24.176  0.00  0.00    -0.337 OA
ATOM     36  C   UNL d   1       5.330  41.914  23.392  0.00  0.00     0.012 A 
ATOM     37  C   UNL d   1       6.545  42.344  25.010  0.00  0.00     0.191 A 
ATOM     38  C   UNL d   1       5.545  42.631  25.029  0.00  0.00     0.156 A 
ATOM     39  C   UNL d   1       4.933  42.414  24.214  0.00  0.00     0.079 A 
ATOM     40  C   UNL d   1       4.737  41.709  22.612  0.00  0.00     0.077 A 
ATOM     41  C   UNL d   1       5.104  41.230  21.816  0.00  0.00     0.074 A 
ATOM     42  C   UNL d   1       6.066  40.955  21.798  0.00  0.00     0.078 A 
BRANCH  37  43
ATOM     43  C   UNL d   1       7.142  42.547  25.787  0.00  0.00    -0.024 A 
ATOM     44  C   UNL d   1       6.936  42.165  26.687  0.00  0.00     0.049 A 
ATOM     45  C   UNL d   1       7.533  42.367  27.465  0.00  0.00     0.099 A 
ATOM     46  C   UNL d   1       8.335  42.951  27.340  0.00  0.00     0.098 A 
ATOM     47  C   UNL d   1       8.540  43.332  26.439  0.00  0.00     0.040 A 
ATOM     48  C   UNL d   1       7.944  43.131  25.662  0.00  0.00     0.013 A 
BRANCH  45  49
ATOM     49  O   UNL d   1       7.327  41.985  28.365  0.00  0.00    -0.358 OA
ATOM     50  H   UNL d   1       7.334  42.351  28.866  0.00  0.00     0.217 HD
ENDBRANCH  45  49
BRANCH  46  51
ATOM     51  O   UNL d   1       8.932  43.153  28.117  0.00  0.00    -0.358 OA
ATOM     52  H   UNL d   1       9.546  43.090  28.060  0.00  0.00     0.217 HD
ENDBRANCH  46  51
ENDBRANCH  37  43
BRANCH  38  53
ATOM     53  O   UNL d   1       5.173  43.110  25.824  0.00  0.00    -0.392 OA
ATOM     54  H   UNL d   1       5.423  43.022  26.384  0.00  0.00     0.210 HD
ENDBRANCH  38  53
BRANCH  40  55
ATOM     55  O   UNL d   1       3.775  41.984  22.631  0.00  0.00    -0.360 OA
ATOM     56  H   UNL d   1       3.525  42.272  22.140  0.00  0.00     0.217 HD
ENDBRANCH  40  55
BRANCH  42  57
ATOM     57  O   UNL d   1       6.925  40.561  21.469  0.00  0.00    -0.360 OA
ATOM     58  H   UNL d   1       7.098  40.646  20.880  0.00  0.00     0.217 HD
ENDBRANCH  42  57
ENDBRANCH  17  33
BRANCH  19  59
ATOM     59  O   UNL d   1       7.256  39.355  23.451  0.00  0.00    -0.392 OA
ATOM     60  H   UNL d   1       6.651  39.464  23.375  0.00  0.00     0.210 HD
ENDBRANCH  19  59
BRANCH  22  61
ATOM     61  C   UNL d   1       9.273  38.801  23.401  0.00  0.00    -0.024 A 
ATOM     62  C   UNL d   1       9.287  37.963  22.857  0.00  0.00     0.049 A 
ATOM     63  C   UNL d   1       9.583  37.102  23.272  0.00  0.00     0.099 A 
ATOM     64  C   UNL d   1       9.865  37.081  24.231  0.00  0.00     0.098 A 
ATOM     65  C   UNL d   1       9.851  37.920  24.775  0.00  0.00     0.040 A 
ATOM     66  C   UNL d   1       9.554  38.781  24.360  0.00  0.00     0.013 A 
BRANCH  63  67
ATOM     67  O   UNL d   1       9.598  36.264  22.728  0.00  0.00    -0.358 OA
ATOM     68  H   UNL d   1      10.062  36.159  22.331  0.00  0.00     0.217 HD
ENDBRANCH  63  67
BRANCH  64  69
ATOM     69  O   UNL d   1      10.161  36.221  24.647  0.00  0.00    -0.358 OA
ATOM     70  H   UNL d   1      10.378  35.763  24.290  0.00  0.00     0.217 HD
ENDBRANCH  64  69
ENDBRANCH  22  61
BRANCH  16  71
ATOM     71  C   UNL d   1       5.753  43.938  21.227  0.00  0.00     0.010 A 
ATOM     72  C   UNL d   1       5.131  43.631  20.506  0.00  0.00     0.052 A 
ATOM     73  C   UNL d   1       4.176  43.927  20.511  0.00  0.00     0.099 A 
ATOM     74  C   UNL d   1       3.843  44.530  21.236  0.00  0.00     0.098 A 
ATOM     75  C   UNL d   1       4.466  44.837  21.956  0.00  0.00     0.040 A 
ATOM     76  C   UNL d   1       5.420  44.541  21.951  0.00  0.00     0.015 A 
BRANCH  73  77
ATOM     77  O   UNL d   1       3.554  43.620  19.791  0.00  0.00    -0.358 OA
ATOM     78  H   UNL d   1       2.950  43.549  19.914  0.00  0.00     0.217 HD
ENDBRANCH  73  77
BRANCH  74  79
ATOM     79  O   UNL d   1       2.888  44.827  21.242  0.00  0.00    -0.358 OA
ATOM     80  H   UNL d   1       2.642  45.072  21.756  0.00  0.00     0.217 HD
ENDBRANCH  74  79
ENDBRANCH  16  71
BRANCH  10  81
ATOM     81  O   UNL d   1       6.737  44.940  20.514  0.00  0.00    -0.389 OA
ATOM     82  H   UNL d   1       6.148  45.133  20.553  0.00  0.00     0.210 HD
ENDBRANCH  10  81
BRANCH  13  83
ATOM     83  O   UNL d   1      12.546  44.062  19.983  0.00  0.00    -0.389 OA
ATOM     84  H   UNL d   1      12.897  44.506  20.237  0.00  0.00     0.210 HD
ENDBRANCH  13  83
BRANCH  25  85
ATOM     85  O   UNL d   1       9.758  45.171  19.865  0.00  0.00    -0.360 OA
ATOM     86  H   UNL d   1       9.928  44.620  19.639  0.00  0.00     0.217 HD
ENDBRANCH  25  85
BRANCH  15  87
ATOM     87  C   UNL d   1      13.140  42.587  20.679  0.00  0.00     0.010 A 
ATOM     88  C   UNL d   1      13.710  43.170  21.258  0.00  0.00     0.052 A 
ATOM     89  C   UNL d   1      14.512  43.626  20.872  0.00  0.00     0.099 A 
ATOM     90  C   UNL d   1      14.744  43.498  19.908  0.00  0.00     0.098 A 
ATOM     91  C   UNL d   1      14.174  42.916  19.329  0.00  0.00     0.040 A 
ATOM     92  C   UNL d   1      13.371  42.460  19.715  0.00  0.00     0.015 A 
BRANCH  89  93
ATOM     93  O   UNL d   1      15.083  44.209  21.451  0.00  0.00    -0.358 OA
ATOM     94  H   UNL d   1      15.084  44.129  22.066  0.00  0.00     0.217 HD
ENDBRANCH  89  93
BRANCH  90  95
ATOM     95  O   UNL d   1      15.546  43.954  19.522  0.00  0.00    -0.358 OA
ATOM     96  H   UNL d   1      15.496  44.276  18.994  0.00  0.00     0.217 HD
ENDBRANCH  90  95
ENDBRANCH  15  87
BRANCH  26  97
ATOM     97  O   UNL d   1      10.492  39.733  22.685  0.00  0.00    -0.360 OA
ATOM     98  H   UNL d   1      10.105  39.481  22.271  0.00  0.00     0.217 HD
ENDBRANCH  26  97
BRANCH  31  99
ATOM     99  O   UNL d   1       7.299  47.361  19.104  0.00  0.00    -0.361 OA
ATOM    100  H   UNL d   1       7.254  47.874  19.450  0.00  0.00     0.217 HD
ENDBRANCH  31  99
BRANCH  32 101
ATOM    101  O   UNL d   1      13.509  37.937  23.136  0.00  0.00    -0.361 OA
ATOM    102  H   UNL d   1      13.377  37.372  22.918  0.00  0.00     0.217 HD
ENDBRANCH  32 101
TORSDOF 23
ENDMDL
MODEL 3
REMARK VINA RESULT:   -10.158      2.865      7.251
REMARK INTER + INTRA:          51.518
REMARK INTER:                 -18.400
REMARK INTRA:                  69.918
REMARK UNBOUND:                69.989
REMARK  23 active torsions:
REMARK  status: ('A' for Active; 'I' for Inactive)
REMARK    1  A    between atoms: C_29  and  O_6 
REMARK    2  A    between atoms: C_32  and  O_7 
REMARK    3  A    between atoms: C_38  and  O_8 
REMARK    4  A    between atoms: O_10  and  C_47 
REMARK    5  A    between atoms: O_11  and  C_48 
REMARK    6  A    between atoms: O_12  and  C_51 
REMARK    7  A    between atoms: O_13  and  C_62 
REMARK    8  A    between atoms: O_14  and  C_63 
REMARK    9  A    between atoms: C_65  and  O_15 
REMARK   10  A    between atoms: O_16  and  C_69 
REMARK   11  A    between atoms: O_17  and  C_70 
REMARK   12  A    between atoms: O_18  and  C_71 
REMARK   13  A    between atoms: O_19  and  C_74 
REMARK   14  A    between atoms: O_20  and  C_75 
REMARK   15  A    between atoms: O_21  and  C_76 
REMARK   16  A    between atoms: O_22  and  C_79 
REMARK   17  A    between atoms: O_23  and  C_82 
REMARK   18  A    between atoms: O_24  and  C_84 
REMARK   19  A    between atoms: C_34  and  C_45 
REMARK   20  A    between atoms: C_35  and  C_46 
REMARK   21  A    between atoms: C_36  and  C_42 
REMARK   22  A    between atoms: C_41  and  C_49 
REMARK   23  A    between atoms: C_64  and  C_77 
ROOT
ATOM      1  O   UNL d   1      10.604  43.496  24.111  0.00  0.00    -0.305 OA
ATOM      2  O   UNL d   1       7.711  43.128  21.828  0.00  0.00    -0.305 OA
ATOM      3  O   UNL d   1       8.596  40.717  24.475  0.00  0.00    -0.337 OA
ATOM      4  O   UNL d   1       8.161  44.925  20.840  0.00  0.00    -0.306 OA
ATOM      5  O   UNL d   1      11.684  41.422  26.670  0.00  0.00    -0.306 OA
ATOM      6  C   UNL d   1       9.407  44.328  22.407  0.00  0.00     0.097 A 
ATOM      7  C   UNL d   1      10.611  42.003  25.270  0.00  0.00     0.097 A 
ATOM      8  C   UNL d   1       9.179  43.400  22.921  0.00  0.00     0.022 A 
ATOM      9  C   UNL d   1       9.597  42.233  24.193  0.00  0.00     0.021 A 
ATOM     10  C   UNL d   1       8.772  44.656  21.590  0.00  0.00     0.199 A 
ATOM     11  C   UNL d   1       9.788  43.084  23.705  0.00  0.00     0.092 A 
ATOM     12  C   UNL d   1       8.161  41.933  23.150  0.00  0.00     0.021 A 
ATOM     13  C   UNL d   1      11.967  43.478  25.334  0.00  0.00     0.199 A 
ATOM     14  C   UNL d   1       8.360  42.820  22.642  0.00  0.00     0.092 A 
ATOM     15  C   UNL d   1      11.425  42.428  25.664  0.00  0.00     0.231 A 
ATOM     16  C   UNL d   1       7.918  44.052  21.299  0.00  0.00     0.231 A 
ATOM     17  C   UNL d   1       7.307  41.329  22.859  0.00  0.00     0.094 A 
ATOM     18  C   UNL d   1       8.784  41.637  23.931  0.00  0.00     0.089 A 
ATOM     19  C   UNL d   1       7.101  40.405  23.389  0.00  0.00     0.165 A 
ATOM     20  C   UNL d   1       9.570  45.186  21.889  0.00  0.00     0.020 A 
ATOM     21  C   UNL d   1      10.366  40.734  26.032  0.00  0.00     0.020 A 
ATOM     22  C   UNL d   1       7.749  40.097  24.202  0.00  0.00     0.192 A 
ATOM     23  C   UNL d   1       8.965  45.478  21.126  0.00  0.00     0.085 A 
ATOM     24  C   UNL d   1      11.071  40.635  26.734  0.00  0.00     0.085 A 
ATOM     25  C   UNL d   1      10.313  45.741  22.120  0.00  0.00     0.078 A 
ATOM     26  C   UNL d   1       9.618  40.018  25.921  0.00  0.00     0.078 A 
ATOM     27  C   UNL d   1       9.163  46.295  20.672  0.00  0.00     0.074 A 
ATOM     28  C   UNL d   1      11.077  39.813  27.374  0.00  0.00     0.074 A 
ATOM     29  C   UNL d   1      10.483  46.552  21.644  0.00  0.00     0.073 A 
ATOM     30  C   UNL d   1       9.604  39.187  26.550  0.00  0.00     0.073 A 
ATOM     31  C   UNL d   1       9.913  46.826  20.928  0.00  0.00     0.071 A 
ATOM     32  C   UNL d   1      10.338  39.085  27.281  0.00  0.00     0.071 A 
ENDROOT
BRANCH  17  33
ATOM     33  C   UNL d   1       6.717  41.622  22.108  0.00  0.00     0.020 A 
ATOM     34  C   UNL d   1       5.900  42.169  22.299  0.00  0.00     0.088 A 
ATOM     35  O   UNL d   1       5.680  42.423  23.284  0.00  0.00    -0.337 OA
ATOM     36  C   UNL d   1       5.309  42.463  21.548  0.00  0.00     0.012 A 
ATOM     37  C   UNL d   1       4.831  42.992  23.490  0.00  0.00     0.191 A 
ATOM     38  C   UNL d   1       4.215  43.298  22.709  0.00  0.00     0.156 A 
ATOM     39  C   UNL d   1       4.456  43.031  21.731  0.00  0.00     0.079 A 
ATOM     40  C   UNL d   1       5.534  42.211  20.607  0.00  0.00     0.077 A 
ATOM     41  C   UNL d   1       6.349  41.665  20.416  0.00  0.00     0.074 A 
ATOM     42  C   UNL d   1       6.941  41.371  21.167  0.00  0.00     0.078 A 
BRANCH  37  43
ATOM     43  C   UNL d   1       4.610  43.241  24.434  0.00  0.00    -0.024 A 
ATOM     44  C   UNL d   1       4.085  42.613  25.006  0.00  0.00     0.049 A 
ATOM     45  C   UNL d   1       3.863  42.861  25.950  0.00  0.00     0.099 A 
ATOM     46  C   UNL d   1       4.168  43.740  26.319  0.00  0.00     0.098 A 
ATOM     47  C   UNL d   1       4.693  44.367  25.746  0.00  0.00     0.040 A 
ATOM     48  C   UNL d   1       4.915  44.119  24.803  0.00  0.00     0.013 A 
BRANCH  45  49
ATOM     49  O   UNL d   1       3.338  42.233  26.522  0.00  0.00    -0.358 OA
ATOM     50  H   UNL d   1       2.854  42.442  26.849  0.00  0.00     0.217 HD
ENDBRANCH  45  49
BRANCH  46  51
ATOM     51  O   UNL d   1       3.947  43.989  27.262  0.00  0.00    -0.358 OA
ATOM     52  H   UNL d   1       4.392  44.204  27.638  0.00  0.00     0.217 HD
ENDBRANCH  46  51
ENDBRANCH  37  43
BRANCH  38  53
ATOM     53  O   UNL d   1       3.398  43.844  22.895  0.00  0.00    -0.392 OA
ATOM     54  H   UNL d   1       3.381  44.216  23.390  0.00  0.00     0.210 HD
ENDBRANCH  38  53
BRANCH  40  55
ATOM     55  O   UNL d   1       4.942  42.505  19.855  0.00  0.00    -0.360 OA
ATOM     56  H   UNL d   1       4.327  42.433  19.898  0.00  0.00     0.217 HD
ENDBRANCH  40  55
BRANCH  42  57
ATOM     57  O   UNL d   1       7.702  40.937  21.648  0.00  0.00    -0.360 OA
ATOM     58  H   UNL d   1       8.276  40.973  21.416  0.00  0.00     0.217 HD
ENDBRANCH  42  57
ENDBRANCH  17  33
BRANCH  19  59
ATOM     59  O   UNL d   1       6.317  39.841  23.129  0.00  0.00    -0.392 OA
ATOM     60  H   UNL d   1       6.157  39.353  23.476  0.00  0.00     0.210 HD
ENDBRANCH  19  59
BRANCH  22  61
ATOM     61  C   UNL d   1       7.567  39.247  24.697  0.00  0.00    -0.024 A 
ATOM     62  C   UNL d   1       7.992  38.393  24.396  0.00  0.00     0.049 A 
ATOM     63  C   UNL d   1       7.810  37.543  24.891  0.00  0.00     0.099 A 
ATOM     64  C   UNL d   1       7.204  37.548  25.686  0.00  0.00     0.098 A 
ATOM     65  C   UNL d   1       6.779  38.401  25.987  0.00  0.00     0.040 A 
ATOM     66  C   UNL d   1       6.961  39.252  25.492  0.00  0.00     0.013 A 
BRANCH  63  67
ATOM     67  O   UNL d   1       8.234  36.689  24.591  0.00  0.00    -0.358 OA
ATOM     68  H   UNL d   1       8.528  36.663  24.046  0.00  0.00     0.217 HD
ENDBRANCH  63  67
BRANCH  64  69
ATOM     69  O   UNL d   1       7.021  36.698  26.181  0.00  0.00    -0.358 OA
ATOM     70  H   UNL d   1       7.424  36.228  26.150  0.00  0.00     0.217 HD
ENDBRANCH  64  69
ENDBRANCH  22  61
BRANCH  16  71
ATOM     71  C   UNL d   1       7.342  44.367  20.545  0.00  0.00     0.010 A 
ATOM     72  C   UNL d   1       7.529  44.060  19.611  0.00  0.00     0.052 A 
ATOM     73  C   UNL d   1       6.953  44.374  18.858  0.00  0.00     0.099 A 
ATOM     74  C   UNL d   1       6.190  44.995  19.036  0.00  0.00     0.098 A 
ATOM     75  C   UNL d   1       6.003  45.302  19.970  0.00  0.00     0.040 A 
ATOM     76  C   UNL d   1       6.579  44.988  20.724  0.00  0.00     0.015 A 
BRANCH  73  77
ATOM     77  O   UNL d   1       7.139  44.067  17.924  0.00  0.00    -0.358 OA
ATOM     78  H   UNL d   1       6.673  44.010  17.519  0.00  0.00     0.217 HD
ENDBRANCH  73  77
BRANCH  74  79
ATOM     79  O   UNL d   1       5.612  45.310  18.282  0.00  0.00    -0.358 OA
ATOM     80  H   UNL d   1       5.843  45.340  17.707  0.00  0.00     0.217 HD
ENDBRANCH  74  79
ENDBRANCH  16  71
BRANCH  10  81
ATOM     81  O   UNL d   1       8.548  45.321  20.878  0.00  0.00    -0.389 OA
ATOM     82  H   UNL d   1       8.405  45.450  20.288  0.00  0.00     0.210 HD
ENDBRANCH  10  81
BRANCH  13  83
ATOM     83  O   UNL d   1      12.488  44.313  25.152  0.00  0.00    -0.389 OA
ATOM     84  H   UNL d   1      12.520  44.758  25.582  0.00  0.00     0.210 HD
ENDBRANCH  13  83
BRANCH  25  85
ATOM     85  O   UNL d   1      10.920  45.470  22.867  0.00  0.00    -0.360 OA
ATOM     86  H   UNL d   1      11.179  44.907  22.867  0.00  0.00     0.217 HD
ENDBRANCH  25  85
BRANCH  15  87
ATOM     87  C   UNL d   1      12.240  42.853  26.059  0.00  0.00     0.010 A 
ATOM     88  C   UNL d   1      12.162  43.412  26.884  0.00  0.00     0.052 A 
ATOM     89  C   UNL d   1      12.976  43.837  27.279  0.00  0.00     0.099 A 
ATOM     90  C   UNL d   1      13.869  43.704  26.848  0.00  0.00     0.098 A 
ATOM     91  C   UNL d   1      13.947  43.145  26.022  0.00  0.00     0.040 A 
ATOM     92  C   UNL d   1      13.132  42.720  25.627  0.00  0.00     0.015 A 
BRANCH  89  93
ATOM     93  O   UNL d   1      12.899  44.396  28.105  0.00  0.00    -0.358 OA
ATOM     94  H   UNL d   1      12.420  44.315  28.490  0.00  0.00     0.217 HD
ENDBRANCH  89  93
BRANCH  90  95
ATOM     95  O   UNL d   1      14.683  44.129  27.242  0.00  0.00    -0.358 OA
ATOM     96  H   UNL d   1      15.069  44.454  26.881  0.00  0.00     0.217 HD
ENDBRANCH  90  95
ENDBRANCH  15  87
BRANCH  26  97
ATOM     97  O   UNL d   1       8.918  40.127  25.216  0.00  0.00    -0.360 OA
ATOM     98  H   UNL d   1       8.997  39.868  24.657  0.00  0.00     0.217 HD
ENDBRANCH  26  97
BRANCH  31  99
ATOM     99  O   UNL d   1      10.105  47.677  20.441  0.00  0.00    -0.361 OA
ATOM    100  H   UNL d   1       9.826  48.204  20.614  0.00  0.00     0.217 HD
ENDBRANCH  31  99
BRANCH  32 101
ATOM    101  O   UNL d   1      10.334  38.291  27.890  0.00  0.00    -0.361 OA
ATOM    102  H   UNL d   1      10.850  37.956  27.965  0.00  0.00     0.217 HD
ENDBRANCH  32 101
TORSDOF 23
ENDMDL
MODEL 4
REMARK VINA RESULT:    -9.940      2.168      3.983
REMARK INTER + INTRA:          51.914
REMARK INTER:                 -18.064
REMARK INTRA:                  69.978
REMARK UNBOUND:                69.989
REMARK  23 active torsions:
REMARK  status: ('A' for Active; 'I' for Inactive)
REMARK    1  A    between atoms: C_29  and  O_6 
REMARK    2  A    between atoms: C_32  and  O_7 
REMARK    3  A    between atoms: C_38  and  O_8 
REMARK    4  A    between atoms: O_10  and  C_47 
REMARK    5  A    between atoms: O_11  and  C_48 
REMARK    6  A    between atoms: O_12  and  C_51 
REMARK    7  A    between atoms: O_13  and  C_62 
REMARK    8  A    between atoms: O_14  and  C_63 
REMARK    9  A    between atoms: C_65  and  O_15 
REMARK   10  A    between atoms: O_16  and  C_69 
REMARK   11  A    between atoms: O_17  and  C_70 
REMARK   12  A    between atoms: O_18  and  C_71 
REMARK   13  A    between atoms: O_19  and  C_74 
REMARK   14  A    between atoms: O_20  and  C_75 
REMARK   15  A    between atoms: O_21  and  C_76 
REMARK   16  A    between atoms: O_22  and  C_79 
REMARK   17  A    between atoms: O_23  and  C_82 
REMARK   18  A    between atoms: O_24  and  C_84 
REMARK   19  A    between atoms: C_34  and  C_45 
REMARK   20  A    between atoms: C_35  and  C_46 
REMARK   21  A    between atoms: C_36  and  C_42 
REMARK   22  A    between atoms: C_41  and  C_49 
REMARK   23  A    between atoms: C_64  and  C_77 
ROOT
ATOM      1  O   UNL d   1      12.099  42.311  20.877  0.00  0.00    -0.305 OA
ATOM      2  O   UNL d   1      13.698  39.953  23.243  0.00  0.00    -0.305 OA
ATOM      3  O   UNL d   1      10.113  40.816  23.265  0.00  0.00    -0.337 OA
ATOM      4  O   UNL d   1      15.584  40.223  22.360  0.00  0.00    -0.306 OA
ATOM      5  O   UNL d   1       8.789  43.315  20.647  0.00  0.00    -0.306 OA
ATOM      6  C   UNL d   1      13.968  41.281  21.565  0.00  0.00     0.097 A 
ATOM      7  C   UNL d   1      10.262  42.401  21.313  0.00  0.00     0.097 A 
ATOM      8  C   UNL d   1      12.991  41.145  22.017  0.00  0.00     0.022 A 
ATOM      9  C   UNL d   1      11.263  41.554  22.036  0.00  0.00     0.021 A 
ATOM     10  C   UNL d   1      14.820  40.741  21.963  0.00  0.00     0.199 A 
ATOM     11  C   UNL d   1      12.172  41.664  21.635  0.00  0.00     0.092 A 
ATOM     12  C   UNL d   1      11.913  40.390  23.245  0.00  0.00     0.021 A 
ATOM     13  C   UNL d   1      11.111  43.433  19.818  0.00  0.00     0.199 A 
ATOM     14  C   UNL d   1      12.860  40.505  22.827  0.00  0.00     0.092 A 
ATOM     15  C   UNL d   1      10.206  43.047  20.552  0.00  0.00     0.231 A 
ATOM     16  C   UNL d   1      14.685  40.072  22.808  0.00  0.00     0.231 A 
ATOM     17  C   UNL d   1      11.777  39.722  24.090  0.00  0.00     0.094 A 
ATOM     18  C   UNL d   1      11.108  40.919  22.846  0.00  0.00     0.089 A 
ATOM     19  C   UNL d   1      10.790  39.604  24.524  0.00  0.00     0.165 A 
ATOM     20  C   UNL d   1      14.906  41.367  21.183  0.00  0.00     0.020 A 
ATOM     21  C   UNL d   1       8.879  42.270  21.879  0.00  0.00     0.020 A 
ATOM     22  C   UNL d   1       9.952  40.154  24.109  0.00  0.00     0.192 A 
ATOM     23  C   UNL d   1      15.693  40.853  21.570  0.00  0.00     0.085 A 
ATOM     24  C   UNL d   1       8.257  42.855  21.359  0.00  0.00     0.085 A 
ATOM     25  C   UNL d   1      15.059  41.947  20.440  0.00  0.00     0.078 A 
ATOM     26  C   UNL d   1       8.531  41.695  22.675  0.00  0.00     0.078 A 
ATOM     27  C   UNL d   1      16.554  40.970  21.174  0.00  0.00     0.074 A 
ATOM     28  C   UNL d   1       7.245  42.906  21.597  0.00  0.00     0.074 A 
ATOM     29  C   UNL d   1      15.934  42.041  20.068  0.00  0.00     0.073 A 
ATOM     30  C   UNL d   1       7.521  41.730  22.931  0.00  0.00     0.073 A 
ATOM     31  C   UNL d   1      16.674  41.558  20.431  0.00  0.00     0.071 A 
ATOM     32  C   UNL d   1       6.875  42.340  22.388  0.00  0.00     0.071 A 
ENDROOT
BRANCH  17  33
ATOM     33  C   UNL d   1      12.555  39.220  24.464  0.00  0.00     0.020 A 
ATOM     34  C   UNL d   1      12.770  38.304  24.123  0.00  0.00     0.088 A 
ATOM     35  O   UNL d   1      12.172  37.887  23.379  0.00  0.00    -0.337 OA
ATOM     36  C   UNL d   1      13.549  37.801  24.497  0.00  0.00     0.012 A 
ATOM     37  C   UNL d   1      12.389  36.934  23.020  0.00  0.00     0.191 A 
ATOM     38  C   UNL d   1      13.200  36.410  23.409  0.00  0.00     0.156 A 
ATOM     39  C   UNL d   1      13.785  36.847  24.153  0.00  0.00     0.079 A 
ATOM     40  C   UNL d   1      14.114  38.214  25.211  0.00  0.00     0.077 A 
ATOM     41  C   UNL d   1      13.901  39.130  25.552  0.00  0.00     0.074 A 
ATOM     42  C   UNL d   1      13.121  39.633  25.178  0.00  0.00     0.078 A 
BRANCH  37  43
ATOM     43  C   UNL d   1      11.821  36.524  22.305  0.00  0.00    -0.024 A 
ATOM     44  C   UNL d   1      11.027  35.971  22.555  0.00  0.00     0.049 A 
ATOM     45  C   UNL d   1      10.458  35.562  21.841  0.00  0.00     0.099 A 
ATOM     46  C   UNL d   1      10.685  35.706  20.877  0.00  0.00     0.098 A 
ATOM     47  C   UNL d   1      11.479  36.259  20.629  0.00  0.00     0.040 A 
ATOM     48  C   UNL d   1      12.048  36.668  21.342  0.00  0.00     0.013 A 
BRANCH  45  49
ATOM     49  O   UNL d   1       9.663  35.009  22.091  0.00  0.00    -0.358 OA
ATOM     50  H   UNL d   1       9.616  34.425  21.888  0.00  0.00     0.217 HD
ENDBRANCH  45  49
BRANCH  46  51
ATOM     51  O   UNL d   1      10.117  35.297  20.164  0.00  0.00    -0.358 OA
ATOM     52  H   UNL d   1      10.043  34.681  20.142  0.00  0.00     0.217 HD
ENDBRANCH  46  51
ENDBRANCH  37  43
BRANCH  38  53
ATOM     53  O   UNL d   1      13.418  35.494  23.071  0.00  0.00    -0.392 OA
ATOM     54  H   UNL d   1      13.969  35.241  23.197  0.00  0.00     0.210 HD
ENDBRANCH  38  53
BRANCH  40  55
ATOM     55  O   UNL d   1      14.894  37.711  25.586  0.00  0.00    -0.360 OA
ATOM     56  H   UNL d   1      14.881  37.511  26.173  0.00  0.00     0.217 HD
ENDBRANCH  40  55
BRANCH  42  57
ATOM     57  O   UNL d   1      12.458  40.368  25.035  0.00  0.00    -0.360 OA
ATOM     58  H   UNL d   1      12.596  40.947  25.209  0.00  0.00     0.217 HD
ENDBRANCH  42  57
ENDBRANCH  17  33
BRANCH  19  59
ATOM     59  O   UNL d   1      10.653  38.991  25.302  0.00  0.00    -0.392 OA
ATOM     60  H   UNL d   1      10.464  39.219  25.847  0.00  0.00     0.210 HD
ENDBRANCH  19  59
BRANCH  22  61
ATOM     61  C   UNL d   1       9.038  40.052  24.502  0.00  0.00    -0.024 A 
ATOM     62  C   UNL d   1       8.441  39.312  24.193  0.00  0.00     0.049 A 
ATOM     63  C   UNL d   1       7.527  39.210  24.586  0.00  0.00     0.099 A 
ATOM     64  C   UNL d   1       7.211  39.848  25.288  0.00  0.00     0.098 A 
ATOM     65  C   UNL d   1       7.808  40.588  25.598  0.00  0.00     0.040 A 
ATOM     66  C   UNL d   1       8.722  40.690  25.204  0.00  0.00     0.013 A 
BRANCH  63  67
ATOM     67  O   UNL d   1       6.929  38.470  24.278  0.00  0.00    -0.358 OA
ATOM     68  H   UNL d   1       6.386  38.601  24.010  0.00  0.00     0.217 HD
ENDBRANCH  63  67
BRANCH  64  69
ATOM     69  O   UNL d   1       6.297  39.746  25.682  0.00  0.00    -0.358 OA
ATOM     70  H   UNL d   1       5.858  40.167  25.561  0.00  0.00     0.217 HD
ENDBRANCH  64  69
ENDBRANCH  22  61
BRANCH  16  71
ATOM     71  C   UNL d   1      15.479  39.581  23.164  0.00  0.00     0.010 A 
ATOM     72  C   UNL d   1      16.007  39.966  23.922  0.00  0.00     0.052 A 
ATOM     73  C   UNL d   1      16.801  39.475  24.278  0.00  0.00     0.099 A 
ATOM     74  C   UNL d   1      17.068  38.599  23.878  0.00  0.00     0.098 A 
ATOM     75  C   UNL d   1      16.540  38.213  23.120  0.00  0.00     0.040 A 
ATOM     76  C   UNL d   1      15.746  38.705  22.764  0.00  0.00     0.015 A 
BRANCH  73  77
ATOM     77  O   UNL d   1      17.328  39.860  25.036  0.00  0.00    -0.358 OA
ATOM     78  H   UNL d   1      17.663  39.487  25.401  0.00  0.00     0.217 HD
ENDBRANCH  73  77
BRANCH  74  79
ATOM     79  O   UNL d   1      17.863  38.106  24.235  0.00  0.00    -0.358 OA
ATOM     80  H   UNL d   1      17.837  37.492  24.313  0.00  0.00     0.217 HD
ENDBRANCH  74  79
ENDBRANCH  16  71
BRANCH  10  81
ATOM     81  O   UNL d   1      15.796  40.520  21.941  0.00  0.00    -0.389 OA
ATOM     82  H   UNL d   1      16.382  40.659  22.088  0.00  0.00     0.210 HD
ENDBRANCH  10  81
BRANCH  13  83
ATOM     83  O   UNL d   1      11.765  43.815  19.165  0.00  0.00    -0.389 OA
ATOM     84  H   UNL d   1      11.563  44.098  18.653  0.00  0.00     0.210 HD
ENDBRANCH  13  83
BRANCH  25  85
ATOM     85  O   UNL d   1      14.297  42.461  20.047  0.00  0.00    -0.360 OA
ATOM     86  H   UNL d   1      13.806  42.603  20.397  0.00  0.00     0.217 HD
ENDBRANCH  25  85
BRANCH  15  87
ATOM     87  C   UNL d   1      10.151  43.693  19.790  0.00  0.00     0.010 A 
ATOM     88  C   UNL d   1      10.137  44.676  19.970  0.00  0.00     0.052 A 
ATOM     89  C   UNL d   1      10.082  45.322  19.208  0.00  0.00     0.099 A 
ATOM     90  C   UNL d   1      10.040  44.984  18.268  0.00  0.00     0.098 A 
ATOM     91  C   UNL d   1      10.053  44.001  18.089  0.00  0.00     0.040 A 
ATOM     92  C   UNL d   1      10.109  43.355  18.850  0.00  0.00     0.015 A 
BRANCH  89  93
ATOM     93  O   UNL d   1      10.068  46.306  19.387  0.00  0.00    -0.358 OA
ATOM     94  H   UNL d   1      10.364  46.535  19.881  0.00  0.00     0.217 HD
ENDBRANCH  89  93
BRANCH  90  95
ATOM     95  O   UNL d   1       9.984  45.631  17.507  0.00  0.00    -0.358 OA
ATOM     96  H   UNL d   1       9.751  46.199  17.598  0.00  0.00     0.217 HD
ENDBRANCH  90  95
ENDBRANCH  15  87
BRANCH  26  97
ATOM     97  O   UNL d   1       9.161  41.113  23.188  0.00  0.00    -0.360 OA
ATOM     98  H   UNL d   1       9.332  41.274  23.763  0.00  0.00     0.217 HD
ENDBRANCH  26  97
BRANCH  31  99
ATOM     99  O   UNL d   1      17.583  41.668  20.029  0.00  0.00    -0.361 OA
ATOM    100  H   UNL d   1      18.037  41.933  20.358  0.00  0.00     0.217 HD
ENDBRANCH  31  99
BRANCH  32 101
ATOM    101  O   UNL d   1       5.904  42.380  22.626  0.00  0.00    -0.361 OA
ATOM    102  H   UNL d   1       5.630  42.929  22.715  0.00  0.00     0.217 HD
ENDBRANCH  32 101
TORSDOF 23
ENDMDL
MODEL 5
REMARK VINA RESULT:    -9.451      2.373      7.704
REMARK INTER + INTRA:          52.803
REMARK INTER:                 -17.096
REMARK INTRA:                  69.899
REMARK UNBOUND:                69.989
REMARK  23 active torsions:
REMARK  status: ('A' for Active; 'I' for Inactive)
REMARK    1  A    between atoms: C_29  and  O_6 
REMARK    2  A    between atoms: C_32  and  O_7 
REMARK    3  A    between atoms: C_38  and  O_8 
REMARK    4  A    between atoms: O_10  and  C_47 
REMARK    5  A    between atoms: O_11  and  C_48 
REMARK    6  A    between atoms: O_12  and  C_51 
REMARK    7  A    between atoms: O_13  and  C_62 
REMARK    8  A    between atoms: O_14  and  C_63 
REMARK    9  A    between atoms: C_65  and  O_15 
REMARK   10  A    between atoms: O_16  and  C_69 
REMARK   11  A    between atoms: O_17  and  C_70 
REMARK   12  A    between atoms: O_18  and  C_71 
REMARK   13  A    between atoms: O_19  and  C_74 
REMARK   14  A    between atoms: O_20  and  C_75 
REMARK   15  A    between atoms: O_21  and  C_76 
REMARK   16  A    between atoms: O_22  and  C_79 
REMARK   17  A    between atoms: O_23  and  C_82 
REMARK   18  A    between atoms: O_24  and  C_84 
REMARK   19  A    between atoms: C_34  and  C_45 
REMARK   20  A    between atoms: C_35  and  C_46 
REMARK   21  A    between atoms: C_36  and  C_42 
REMARK   22  A    between atoms: C_41  and  C_49 
REMARK   23  A    between atoms: C_64  and  C_77 
ROOT
ATOM      1  O   UNL d   1      14.587  42.967  23.623  0.00  0.00    -0.305 OA
ATOM      2  O   UNL d   1      11.284  42.941  25.297  0.00  0.00    -0.305 OA
ATOM      3  O   UNL d   1      11.787  43.529  21.692  0.00  0.00    -0.337 OA
ATOM      4  O   UNL d   1      12.148  42.545  27.170  0.00  0.00    -0.306 OA
ATOM      5  O   UNL d   1      15.376  43.485  20.287  0.00  0.00    -0.306 OA
ATOM      6  C   UNL d   1      13.418  42.730  25.522  0.00  0.00     0.097 A 
ATOM      7  C   UNL d   1      14.295  43.311  21.787  0.00  0.00     0.097 A 
ATOM      8  C   UNL d   1      12.977  42.935  24.552  0.00  0.00     0.022 A 
ATOM      9  C   UNL d   1      13.209  43.219  22.814  0.00  0.00     0.021 A 
ATOM     10  C   UNL d   1      12.776  42.630  26.390  0.00  0.00     0.199 A 
ATOM     11  C   UNL d   1      13.594  43.031  23.718  0.00  0.00     0.092 A 
ATOM     12  C   UNL d   1      11.546  43.233  23.502  0.00  0.00     0.021 A 
ATOM     13  C   UNL d   1      16.106  43.023  22.599  0.00  0.00     0.199 A 
ATOM     14  C   UNL d   1      11.947  43.037  24.443  0.00  0.00     0.092 A 
ATOM     15  C   UNL d   1      15.289  43.244  21.710  0.00  0.00     0.231 A 
ATOM     16  C   UNL d   1      11.702  42.736  26.278  0.00  0.00     0.231 A 
ATOM     17  C   UNL d   1      10.472  43.339  23.389  0.00  0.00     0.094 A 
ATOM     18  C   UNL d   1      12.182  43.325  22.681  0.00  0.00     0.089 A 
ATOM     19  C   UNL d   1      10.055  43.544  22.408  0.00  0.00     0.165 A 
ATOM     20  C   UNL d   1      13.774  42.539  26.454  0.00  0.00     0.020 A 
ATOM     21  C   UNL d   1      13.766  43.593  20.412  0.00  0.00     0.020 A 
ATOM     22  C   UNL d   1      10.717  43.640  21.554  0.00  0.00     0.192 A 
ATOM     23  C   UNL d   1      13.157  42.448  27.257  0.00  0.00     0.085 A 
ATOM     24  C   UNL d   1      14.533  43.643  19.772  0.00  0.00     0.085 A 
ATOM     25  C   UNL d   1      14.715  42.439  26.588  0.00  0.00     0.078 A 
ATOM     26  C   UNL d   1      12.787  43.729  20.084  0.00  0.00     0.078 A 
ATOM     27  C   UNL d   1      13.542  42.268  28.112  0.00  0.00     0.074 A 
ATOM     28  C   UNL d   1      14.374  43.832  18.761  0.00  0.00     0.074 A 
ATOM     29  C   UNL d   1      15.067  42.260  27.458  0.00  0.00     0.073 A 
ATOM     30  C   UNL d   1      12.604  43.920  19.076  0.00  0.00     0.073 A 
ATOM     31  C   UNL d   1      14.487  42.175  28.212  0.00  0.00     0.071 A 
ATOM     32  C   UNL d   1      13.403  43.972  18.410  0.00  0.00     0.071 A 
ENDROOT
BRANCH  17  33
ATOM     33  C   UNL d   1       9.872  43.249  24.182  0.00  0.00     0.020 A 
ATOM     34  C   UNL d   1       9.470  42.361  24.407  0.00  0.00     0.088 A 
ATOM     35  O   UNL d   1       9.686  41.540  23.804  0.00  0.00    -0.337 OA
ATOM     36  C   UNL d   1       8.869  42.270  25.201  0.00  0.00     0.012 A 
ATOM     37  C   UNL d   1       9.271  40.612  24.031  0.00  0.00     0.191 A 
ATOM     38  C   UNL d   1       8.646  40.517  24.858  0.00  0.00     0.156 A 
ATOM     39  C   UNL d   1       8.443  41.352  25.447  0.00  0.00     0.079 A 
ATOM     40  C   UNL d   1       8.670  43.067  25.771  0.00  0.00     0.077 A 
ATOM     41  C   UNL d   1       9.071  43.955  25.547  0.00  0.00     0.074 A 
ATOM     42  C   UNL d   1       9.672  44.046  24.753  0.00  0.00     0.078 A 
BRANCH  37  43
ATOM     43  C   UNL d   1       9.473  39.816  23.458  0.00  0.00    -0.024 A 
ATOM     44  C   UNL d   1      10.213  39.195  23.711  0.00  0.00     0.049 A 
ATOM     45  C   UNL d   1      10.416  38.399  23.138  0.00  0.00     0.099 A 
ATOM     46  C   UNL d   1       9.877  38.227  22.314  0.00  0.00     0.098 A 
ATOM     47  C   UNL d   1       9.136  38.850  22.062  0.00  0.00     0.040 A 
ATOM     48  C   UNL d   1       8.934  39.645  22.634  0.00  0.00     0.013 A 
BRANCH  45  49
ATOM     49  O   UNL d   1      11.157  37.778  23.391  0.00  0.00    -0.358 OA
ATOM     50  H   UNL d   1      11.579  37.611  22.968  0.00  0.00     0.217 HD
ENDBRANCH  45  49
BRANCH  46  51
ATOM     51  O   UNL d   1      10.079  37.433  21.741  0.00  0.00    -0.358 OA
ATOM     52  H   UNL d   1       9.622  37.048  21.573  0.00  0.00     0.217 HD
ENDBRANCH  46  51
ENDBRANCH  37  43
BRANCH  38  53
ATOM     53  O   UNL d   1       8.242  39.630  25.086  0.00  0.00    -0.392 OA
ATOM     54  H   UNL d   1       8.363  39.366  25.633  0.00  0.00     0.210 HD
ENDBRANCH  38  53
BRANCH  40  55
ATOM     55  O   UNL d   1       8.069  42.977  26.566  0.00  0.00    -0.360 OA
ATOM     56  H   UNL d   1       7.489  42.768  26.494  0.00  0.00     0.217 HD
ENDBRANCH  40  55
BRANCH  42  57
ATOM     57  O   UNL d   1      10.277  44.464  24.075  0.00  0.00    -0.360 OA
ATOM     58  H   UNL d   1      10.816  44.713  24.253  0.00  0.00     0.217 HD
ENDBRANCH  42  57
ENDBRANCH  17  33
BRANCH  19  59
ATOM     59  O   UNL d   1       9.067  43.644  22.292  0.00  0.00    -0.392 OA
ATOM     60  H   UNL d   1       8.774  44.134  22.533  0.00  0.00     0.210 HD
ENDBRANCH  19  59
BRANCH  22  61
ATOM     61  C   UNL d   1      10.343  43.828  20.645  0.00  0.00    -0.024 A 
ATOM     62  C   UNL d   1      10.211  44.773  20.346  0.00  0.00     0.049 A 
ATOM     63  C   UNL d   1       9.837  44.962  19.437  0.00  0.00     0.099 A 
ATOM     64  C   UNL d   1       9.595  44.205  18.830  0.00  0.00     0.098 A 
ATOM     65  C   UNL d   1       9.727  43.261  19.129  0.00  0.00     0.040 A 
ATOM     66  C   UNL d   1      10.102  43.072  20.038  0.00  0.00     0.013 A 
BRANCH  63  67
ATOM     67  O   UNL d   1       9.704  45.906  19.137  0.00  0.00    -0.358 OA
ATOM     68  H   UNL d   1      10.114  46.342  19.296  0.00  0.00     0.217 HD
ENDBRANCH  63  67
BRANCH  64  69
ATOM     69  O   UNL d   1       9.221  44.393  17.922  0.00  0.00    -0.358 OA
ATOM     70  H   UNL d   1       9.456  44.108  17.424  0.00  0.00     0.217 HD
ENDBRANCH  64  69
ENDBRANCH  22  61
BRANCH  16  71
ATOM     71  C   UNL d   1      11.122  42.642  27.087  0.00  0.00     0.010 A 
ATOM     72  C   UNL d   1      10.861  43.452  27.612  0.00  0.00     0.052 A 
ATOM     73  C   UNL d   1      10.281  43.358  28.421  0.00  0.00     0.099 A 
ATOM     74  C   UNL d   1       9.962  42.453  28.705  0.00  0.00     0.098 A 
ATOM     75  C   UNL d   1      10.222  41.643  28.179  0.00  0.00     0.040 A 
ATOM     76  C   UNL d   1      10.802  41.738  27.370  0.00  0.00     0.015 A 
BRANCH  73  77
ATOM     77  O   UNL d   1      10.020  44.168  28.946  0.00  0.00    -0.358 OA
ATOM     78  H   UNL d   1      10.377  44.359  29.416  0.00  0.00     0.217 HD
ENDBRANCH  73  77
BRANCH  74  79
ATOM     79  O   UNL d   1       9.381  42.358  29.514  0.00  0.00    -0.358 OA
ATOM     80  H   UNL d   1       9.180  41.798  29.687  0.00  0.00     0.217 HD
ENDBRANCH  74  79
ENDBRANCH  16  71
BRANCH  10  81
ATOM     81  O   UNL d   1      12.660  42.468  27.371  0.00  0.00    -0.389 OA
ATOM     82  H   UNL d   1      12.673  42.676  27.955  0.00  0.00     0.210 HD
ENDBRANCH  10  81
BRANCH  13  83
ATOM     83  O   UNL d   1      16.854  42.851  23.239  0.00  0.00    -0.389 OA
ATOM     84  H   UNL d   1      17.182  43.326  23.467  0.00  0.00     0.210 HD
ENDBRANCH  13  83
BRANCH  25  85
ATOM     85  O   UNL d   1      15.337  42.525  25.810  0.00  0.00    -0.360 OA
ATOM     86  H   UNL d   1      15.859  42.855  25.866  0.00  0.00     0.217 HD
ENDBRANCH  25  85
BRANCH  15  87
ATOM     87  C   UNL d   1      16.284  43.178  21.633  0.00  0.00     0.010 A 
ATOM     88  C   UNL d   1      16.848  43.999  21.718  0.00  0.00     0.052 A 
ATOM     89  C   UNL d   1      17.843  43.932  21.641  0.00  0.00     0.099 A 
ATOM     90  C   UNL d   1      18.273  43.045  21.478  0.00  0.00     0.098 A 
ATOM     91  C   UNL d   1      17.710  42.223  21.393  0.00  0.00     0.040 A 
ATOM     92  C   UNL d   1      16.715  42.290  21.470  0.00  0.00     0.015 A 
BRANCH  89  93
ATOM     93  O   UNL d   1      18.407  44.753  21.727  0.00  0.00    -0.358 OA
ATOM     94  H   UNL d   1      18.971  44.717  21.984  0.00  0.00     0.217 HD
ENDBRANCH  89  93
BRANCH  90  95
ATOM     95  O   UNL d   1      19.268  42.978  21.401  0.00  0.00    -0.358 OA
ATOM     96  H   UNL d   1      19.530  42.447  21.215  0.00  0.00     0.217 HD
ENDBRANCH  90  95
ENDBRANCH  15  87
BRANCH  26  97
ATOM     97  O   UNL d   1      12.028  43.677  20.732  0.00  0.00    -0.360 OA
ATOM     98  H   UNL d   1      11.967  44.108  21.175  0.00  0.00     0.217 HD
ENDBRANCH  26  97
BRANCH  31  99
ATOM     99  O   UNL d   1      14.872  41.986  29.115  0.00  0.00    -0.361 OA
ATOM    100  H   UNL d   1      14.686  41.488  29.434  0.00  0.00     0.217 HD
ENDBRANCH  31  99
BRANCH  32 101
ATOM    101  O   UNL d   1      13.239  44.154  17.441  0.00  0.00    -0.361 OA
ATOM    102  H   UNL d   1      13.368  44.712  17.205  0.00  0.00     0.217 HD
ENDBRANCH  32 101
TORSDOF 23
ENDMDL
