MODEL 1
REMARK VINA RESULT:   -11.500      0.000      0.000
REMARK INTER + INTRA:          -6.570
REMARK INTER:                 -16.559
REMARK INTRA:                   9.989
REMARK UNBOUND:                 9.971
REMARK  11 active torsions:
REMARK  status: ('A' for Active; 'I' for Inactive)
REMARK    1  A    between atoms: C_14  and  O_3 
REMARK    2  A    between atoms: O_5  and  C_20 
REMARK    3  A    between atoms: C_26  and  O_6 
REMARK    4  A    between atoms: O_7  and  C_28 
REMARK    5  A    between atoms: O_8  and  C_33 
REMARK    6  A    between atoms: O_9  and  C_35 
REMARK    7  A    between atoms: O_10  and  C_37 
REMARK    8  A    between atoms: O_11  and  C_40 
REMARK    9  A    between atoms: O_12  and  C_42 
REMARK   10  A    between atoms: C_15  and  C_21 
REMARK   11  A    between atoms: C_27  and  C_34 
ROOT
ATOM      1  O   UNL d   1       4.608  43.856  25.763  0.00  0.00    -0.306 OA
ATOM      2  O   UNL d   1       2.899  41.012  26.768  0.00  0.00    -0.306 OA
ATOM      3  O   UNL d   1       5.113  45.254  22.384  0.00  0.00    -0.338 OA
ATOM      4  C   UNL d   1       3.577  42.280  25.593  0.00  0.00     0.097 A 
ATOM      5  C   UNL d   1       4.244  43.002  27.341  0.00  0.00     0.199 A 
ATOM      6  C   UNL d   1       3.659  42.228  26.588  0.00  0.00     0.231 A 
ATOM      7  C   UNL d   1       3.998  43.144  24.445  0.00  0.00     0.021 A 
ATOM      8  C   UNL d   1       2.766  41.096  25.158  0.00  0.00     0.020 A 
ATOM      9  C   UNL d   1       4.535  43.923  24.768  0.00  0.00     0.085 A 
ATOM     10  C   UNL d   1       2.515  40.560  25.963  0.00  0.00     0.085 A 
ATOM     11  C   UNL d   1       3.798  43.016  23.431  0.00  0.00     0.084 A 
ATOM     12  C   UNL d   1       4.163  43.709  22.744  0.00  0.00     0.012 A 
ATOM     13  C   UNL d   1       3.954  43.576  21.688  0.00  0.00     0.079 A 
ATOM     14  C   UNL d   1       4.723  44.520  23.081  0.00  0.00     0.081 A 
ATOM     15  C   UNL d   1       4.910  44.628  24.099  0.00  0.00     0.075 A 
ATOM     16  C   UNL d   1       4.335  44.298  20.971  0.00  0.00     0.156 A 
ATOM     17  C   UNL d   1       4.918  45.142  21.322  0.00  0.00     0.191 A 
ATOM     18  C   UNL d   1       2.466  40.802  24.205  0.00  0.00     0.078 A 
ATOM     19  C   UNL d   1       1.947  39.691  25.872  0.00  0.00     0.074 A 
ATOM     20  C   UNL d   1       1.897  39.936  24.090  0.00  0.00     0.073 A 
ATOM     21  C   UNL d   1       1.636  39.378  24.929  0.00  0.00     0.071 A 
ENDROOT
BRANCH   6  22
ATOM     22  C   UNL d   1       3.742  42.177  27.584  0.00  0.00     0.010 A 
ATOM     23  C   UNL d   1       3.050  42.605  28.165  0.00  0.00     0.052 A 
ATOM     24  C   UNL d   1       3.133  42.553  29.160  0.00  0.00     0.099 A 
ATOM     25  C   UNL d   1       3.906  42.073  29.573  0.00  0.00     0.098 A 
ATOM     26  C   UNL d   1       4.598  41.645  28.991  0.00  0.00     0.040 A 
ATOM     27  C   UNL d   1       4.516  41.697  27.997  0.00  0.00     0.015 A 
BRANCH  24  28
ATOM     28  O   UNL d   1       2.441  42.981  29.743  0.00  0.00    -0.358 OA
ATOM     29  H   UNL d   1       2.002  43.338  29.490  0.00  0.00     0.217 HD
ENDBRANCH  24  28
BRANCH  25  30
ATOM     30  O   UNL d   1       3.990  42.020  30.568  0.00  0.00    -0.358 OA
ATOM     31  H   UNL d   1       3.599  41.666  30.895  0.00  0.00     0.217 HD
ENDBRANCH  25  30
ENDBRANCH   6  22
BRANCH   5  32
ATOM     32  O   UNL d   1       4.684  43.561  28.044  0.00  0.00    -0.389 OA
ATOM     33  H   UNL d   1       4.602  44.174  28.049  0.00  0.00     0.210 HD
ENDBRANCH   5  32
BRANCH  11  34
ATOM     34  O   UNL d   1       3.259  42.233  23.118  0.00  0.00    -0.359 OA
ATOM     35  H   UNL d   1       3.496  41.839  22.702  0.00  0.00     0.217 HD
ENDBRANCH  11  34
BRANCH  18  36
ATOM     36  O   UNL d   1       2.722  41.345  23.406  0.00  0.00    -0.360 OA
ATOM     37  H   UNL d   1       2.723  41.087  22.842  0.00  0.00     0.217 HD
ENDBRANCH  18  36
BRANCH  21  38
ATOM     38  O   UNL d   1       1.090  38.546  24.830  0.00  0.00    -0.361 OA
ATOM     39  H   UNL d   1       0.734  38.351  25.298  0.00  0.00     0.217 HD
ENDBRANCH  21  38
BRANCH  17  40
ATOM     40  C   UNL d   1       5.273  45.814  20.671  0.00  0.00    -0.024 A 
ATOM     41  C   UNL d   1       6.149  45.653  20.216  0.00  0.00     0.049 A 
ATOM     42  C   UNL d   1       6.504  46.325  19.565  0.00  0.00     0.099 A 
ATOM     43  C   UNL d   1       5.983  47.155  19.370  0.00  0.00     0.098 A 
ATOM     44  C   UNL d   1       5.108  47.316  19.825  0.00  0.00     0.040 A 
ATOM     45  C   UNL d   1       4.752  46.644  20.476  0.00  0.00     0.013 A 
BRANCH  42  46
ATOM     46  O   UNL d   1       7.380  46.165  19.110  0.00  0.00    -0.358 OA
ATOM     47  H   UNL d   1       7.737  46.644  18.947  0.00  0.00     0.217 HD
ENDBRANCH  42  46
BRANCH  43  48
ATOM     48  O   UNL d   1       6.339  47.827  18.719  0.00  0.00    -0.358 OA
ATOM     49  H   UNL d   1       5.947  48.149  18.361  0.00  0.00     0.217 HD
ENDBRANCH  43  48
ENDBRANCH  17  40
BRANCH  16  50
ATOM     50  O   UNL d   1       4.148  44.184  19.996  0.00  0.00    -0.392 OA
ATOM     51  H   UNL d   1       3.625  44.410  19.751  0.00  0.00     0.210 HD
ENDBRANCH  16  50
TORSDOF 11
ENDMDL
MODEL 2
REMARK VINA RESULT:   -10.972      3.981      8.798
REMARK INTER + INTRA:          -5.811
REMARK INTER:                 -16.169
REMARK INTRA:                  10.359
REMARK UNBOUND:                 9.971
REMARK  11 active torsions:
REMARK  status: ('A' for Active; 'I' for Inactive)
REMARK    1  A    between atoms: C_14  and  O_3 
REMARK    2  A    between atoms: O_5  and  C_20 
REMARK    3  A    between atoms: C_26  and  O_6 
REMARK    4  A    between atoms: O_7  and  C_28 
REMARK    5  A    between atoms: O_8  and  C_33 
REMARK    6  A    between atoms: O_9  and  C_35 
REMARK    7  A    between atoms: O_10  and  C_37 
REMARK    8  A    between atoms: O_11  and  C_40 
REMARK    9  A    between atoms: O_12  and  C_42 
REMARK   10  A    between atoms: C_15  and  C_21 
REMARK   11  A    between atoms: C_27  and  C_34 
ROOT
ATOM      1  O   UNL d   1       7.274  42.559  20.175  0.00  0.00    -0.306 OA
ATOM      2  O   UNL d   1       7.837  45.830  19.173  0.00  0.00    -0.306 OA
ATOM      3  O   UNL d   1       4.186  40.947  21.398  0.00  0.00    -0.338 OA
ATOM      4  C   UNL d   1       6.877  44.370  19.804  0.00  0.00     0.097 A 
ATOM      5  C   UNL d   1       8.687  43.543  19.551  0.00  0.00     0.199 A 
ATOM      6  C   UNL d   1       7.840  44.431  19.538  0.00  0.00     0.231 A 
ATOM      7  C   UNL d   1       5.885  43.376  20.322  0.00  0.00     0.021 A 
ATOM      8  C   UNL d   1       6.280  45.731  19.603  0.00  0.00     0.020 A 
ATOM      9  C   UNL d   1       6.314  42.481  20.444  0.00  0.00     0.085 A 
ATOM     10  C   UNL d   1       6.986  46.349  19.258  0.00  0.00     0.085 A 
ATOM     11  C   UNL d   1       4.878  43.522  20.545  0.00  0.00     0.084 A 
ATOM     12  C   UNL d   1       4.310  42.725  20.901  0.00  0.00     0.012 A 
ATOM     13  C   UNL d   1       3.262  42.876  21.133  0.00  0.00     0.079 A 
ATOM     14  C   UNL d   1       4.758  41.792  21.029  0.00  0.00     0.081 A 
ATOM     15  C   UNL d   1       5.766  41.670  20.799  0.00  0.00     0.075 A 
ATOM     16  C   UNL d   1       2.670  42.045  21.505  0.00  0.00     0.156 A 
ATOM     17  C   UNL d   1       3.135  41.075  21.638  0.00  0.00     0.191 A 
ATOM     18  C   UNL d   1       5.308  46.069  19.767  0.00  0.00     0.078 A 
ATOM     19  C   UNL d   1       6.770  47.347  19.053  0.00  0.00     0.074 A 
ATOM     20  C   UNL d   1       5.069  47.064  19.569  0.00  0.00     0.073 A 
ATOM     21  C   UNL d   1       5.806  47.707  19.209  0.00  0.00     0.071 A 
ENDROOT
BRANCH   6  22
ATOM     22  C   UNL d   1       8.802  44.492  19.272  0.00  0.00     0.010 A 
ATOM     23  C   UNL d   1       9.058  44.439  18.307  0.00  0.00     0.052 A 
ATOM     24  C   UNL d   1      10.020  44.500  18.041  0.00  0.00     0.099 A 
ATOM     25  C   UNL d   1      10.725  44.614  18.741  0.00  0.00     0.098 A 
ATOM     26  C   UNL d   1      10.468  44.667  19.706  0.00  0.00     0.040 A 
ATOM     27  C   UNL d   1       9.507  44.606  19.972  0.00  0.00     0.015 A 
BRANCH  24  28
ATOM     28  O   UNL d   1      10.277  44.447  17.076  0.00  0.00    -0.358 OA
ATOM     29  H   UNL d   1      10.739  44.798  16.859  0.00  0.00     0.217 HD
ENDBRANCH  24  28
BRANCH  25  30
ATOM     30  O   UNL d   1      11.687  44.675  18.476  0.00  0.00    -0.358 OA
ATOM     31  H   UNL d   1      11.923  45.215  18.281  0.00  0.00     0.217 HD
ENDBRANCH  25  30
ENDBRANCH   6  22
BRANCH   5  32
ATOM     32  O   UNL d   1       9.454  42.902  19.519  0.00  0.00    -0.389 OA
ATOM     33  H   UNL d   1       9.921  42.959  19.921  0.00  0.00     0.210 HD
ENDBRANCH   5  32
BRANCH  11  34
ATOM     34  O   UNL d   1       4.459  44.421  20.418  0.00  0.00    -0.359 OA
ATOM     35  H   UNL d   1       4.308  44.765  20.911  0.00  0.00     0.217 HD
ENDBRANCH  11  34
BRANCH  18  36
ATOM     36  O   UNL d   1       4.610  45.443  20.112  0.00  0.00    -0.360 OA
ATOM     37  H   UNL d   1       4.151  45.657  20.471  0.00  0.00     0.217 HD
ENDBRANCH  18  36
BRANCH  21  38
ATOM     38  O   UNL d   1       5.587  48.663  19.016  0.00  0.00    -0.361 OA
ATOM     39  H   UNL d   1       5.074  48.805  18.699  0.00  0.00     0.217 HD
ENDBRANCH  21  38
BRANCH  17  40
ATOM     40  C   UNL d   1       2.599  40.302  21.979  0.00  0.00    -0.024 A 
ATOM     41  C   UNL d   1       2.451  39.502  21.398  0.00  0.00     0.049 A 
ATOM     42  C   UNL d   1       1.915  38.729  21.739  0.00  0.00     0.099 A 
ATOM     43  C   UNL d   1       1.528  38.758  22.661  0.00  0.00     0.098 A 
ATOM     44  C   UNL d   1       1.677  39.558  23.242  0.00  0.00     0.040 A 
ATOM     45  C   UNL d   1       2.213  40.331  22.901  0.00  0.00     0.013 A 
BRANCH  42  46
ATOM     46  O   UNL d   1       1.765  37.929  21.159  0.00  0.00    -0.358 OA
ATOM     47  H   UNL d   1       1.673  37.373  21.416  0.00  0.00     0.217 HD
ENDBRANCH  42  46
BRANCH  43  48
ATOM     48  O   UNL d   1       0.992  37.985  23.002  0.00  0.00    -0.358 OA
ATOM     49  H   UNL d   1       0.654  37.644  22.609  0.00  0.00     0.217 HD
ENDBRANCH  43  48
ENDBRANCH  17  40
BRANCH  16  50
ATOM     50  O   UNL d   1       1.703  42.175  21.722  0.00  0.00    -0.392 OA
ATOM     51  H   UNL d   1       1.486  42.742  21.847  0.00  0.00     0.210 HD
ENDBRANCH  16  50
TORSDOF 11
ENDMDL
MODEL 3
REMARK VINA RESULT:   -10.710      1.588      4.498
REMARK INTER + INTRA:          -5.434
REMARK INTER:                 -16.426
REMARK INTRA:                  10.992
REMARK UNBOUND:                 9.971
REMARK  11 active torsions:
REMARK  status: ('A' for Active; 'I' for Inactive)
REMARK    1  A    between atoms: C_14  and  O_3 
REMARK    2  A    between atoms: O_5  and  C_20 
REMARK    3  A    between atoms: C_26  and  O_6 
REMARK    4  A    between atoms: O_7  and  C_28 
REMARK    5  A    between atoms: O_8  and  C_33 
REMARK    6  A    between atoms: O_9  and  C_35 
REMARK    7  A    between atoms: O_10  and  C_37 
REMARK    8  A    between atoms: O_11  and  C_40 
REMARK    9  A    between atoms: O_12  and  C_42 
REMARK   10  A    between atoms: C_15  and  C_21 
REMARK   11  A    between atoms: C_27  and  C_34 
ROOT
ATOM      1  O   UNL d   1       2.397  40.702  21.837  0.00  0.00    -0.306 OA
ATOM      2  O   UNL d   1       1.904  39.332  24.983  0.00  0.00    -0.306 OA
ATOM      3  O   UNL d   1       3.995  43.882  20.855  0.00  0.00    -0.338 OA
ATOM      4  C   UNL d   1       2.465  40.574  23.723  0.00  0.00     0.097 A 
ATOM      5  C   UNL d   1       1.649  39.182  22.532  0.00  0.00     0.199 A 
ATOM      6  C   UNL d   1       1.997  39.701  23.589  0.00  0.00     0.231 A 
ATOM      7  C   UNL d   1       3.011  41.722  22.932  0.00  0.00     0.021 A 
ATOM      8  C   UNL d   1       2.661  40.745  25.200  0.00  0.00     0.020 A 
ATOM      9  C   UNL d   1       2.865  41.578  21.954  0.00  0.00     0.085 A 
ATOM     10  C   UNL d   1       2.279  39.952  25.673  0.00  0.00     0.085 A 
ATOM     11  C   UNL d   1       3.487  42.581  23.281  0.00  0.00     0.084 A 
ATOM     12  C   UNL d   1       3.815  43.299  22.601  0.00  0.00     0.012 A 
ATOM     13  C   UNL d   1       4.310  44.193  22.964  0.00  0.00     0.079 A 
ATOM     14  C   UNL d   1       3.662  43.148  21.581  0.00  0.00     0.081 A 
ATOM     15  C   UNL d   1       3.184  42.282  21.256  0.00  0.00     0.075 A 
ATOM     16  C   UNL d   1       4.652  44.941  22.256  0.00  0.00     0.156 A 
ATOM     17  C   UNL d   1       4.493  44.784  21.194  0.00  0.00     0.191 A 
ATOM     18  C   UNL d   1       3.107  41.521  25.732  0.00  0.00     0.078 A 
ATOM     19  C   UNL d   1       2.316  39.879  26.711  0.00  0.00     0.074 A 
ATOM     20  C   UNL d   1       3.155  41.470  26.772  0.00  0.00     0.073 A 
ATOM     21  C   UNL d   1       2.756  40.643  27.264  0.00  0.00     0.071 A 
ENDROOT
BRANCH   6  22
ATOM     22  C   UNL d   1       1.529  38.827  23.455  0.00  0.00     0.010 A 
ATOM     23  C   UNL d   1       2.060  37.988  23.341  0.00  0.00     0.052 A 
ATOM     24  C   UNL d   1       1.592  37.115  23.207  0.00  0.00     0.099 A 
ATOM     25  C   UNL d   1       0.593  37.081  23.188  0.00  0.00     0.098 A 
ATOM     26  C   UNL d   1       0.062  37.921  23.302  0.00  0.00     0.040 A 
ATOM     27  C   UNL d   1       0.530  38.793  23.436  0.00  0.00     0.015 A 
BRANCH  24  28
ATOM     28  O   UNL d   1       2.123  36.275  23.092  0.00  0.00    -0.358 OA
ATOM     29  H   UNL d   1       2.224  35.904  23.579  0.00  0.00     0.217 HD
ENDBRANCH  24  28
BRANCH  25  30
ATOM     30  O   UNL d   1       0.124  36.208  23.054  0.00  0.00    -0.358 OA
ATOM     31  H   UNL d   1       0.389  35.761  22.716  0.00  0.00     0.217 HD
ENDBRANCH  25  30
ENDBRANCH   6  22
BRANCH   5  32
ATOM     32  O   UNL d   1       1.322  38.669  21.738  0.00  0.00    -0.389 OA
ATOM     33  H   UNL d   1       0.721  38.529  21.686  0.00  0.00     0.210 HD
ENDBRANCH   5  32
BRANCH  11  34
ATOM     34  O   UNL d   1       3.628  42.715  24.262  0.00  0.00    -0.359 OA
ATOM     35  H   UNL d   1       3.223  42.483  24.669  0.00  0.00     0.217 HD
ENDBRANCH  11  34
BRANCH  18  36
ATOM     36  O   UNL d   1       3.486  42.310  25.250  0.00  0.00    -0.360 OA
ATOM     37  H   UNL d   1       4.095  42.339  25.133  0.00  0.00     0.217 HD
ENDBRANCH  18  36
BRANCH  21  38
ATOM     38  O   UNL d   1       2.797  40.584  28.262  0.00  0.00    -0.361 OA
ATOM     39  H   UNL d   1       3.210  40.924  28.575  0.00  0.00     0.217 HD
ENDBRANCH  21  38
BRANCH  17  40
ATOM     40  C   UNL d   1       4.804  45.467  20.532  0.00  0.00    -0.024 A 
ATOM     41  C   UNL d   1       4.730  46.440  20.747  0.00  0.00     0.049 A 
ATOM     42  C   UNL d   1       5.041  47.123  20.085  0.00  0.00     0.099 A 
ATOM     43  C   UNL d   1       5.425  46.831  19.210  0.00  0.00     0.098 A 
ATOM     44  C   UNL d   1       5.500  45.858  18.995  0.00  0.00     0.040 A 
ATOM     45  C   UNL d   1       5.189  45.175  19.657  0.00  0.00     0.013 A 
BRANCH  42  46
ATOM     46  O   UNL d   1       4.967  48.097  20.299  0.00  0.00    -0.358 OA
ATOM     47  H   UNL d   1       4.413  48.348  20.416  0.00  0.00     0.217 HD
ENDBRANCH  42  46
BRANCH  43  48
ATOM     48  O   UNL d   1       5.736  47.514  18.548  0.00  0.00    -0.358 OA
ATOM     49  H   UNL d   1       5.449  48.063  18.510  0.00  0.00     0.217 HD
ENDBRANCH  43  48
ENDBRANCH  17  40
BRANCH  16  50
ATOM     50  O   UNL d   1       5.110  45.768  22.580  0.00  0.00    -0.392 OA
ATOM     51  H   UNL d   1       4.817  46.153  22.967  0.00  0.00     0.210 HD
ENDBRANCH  16  50
TORSDOF 11
ENDMDL
MODEL 4
REMARK VINA RESULT:   -10.478      1.719      2.411
REMARK INTER + INTRA:          -5.101
REMARK INTER:                 -15.237
REMARK INTRA:                  10.136
REMARK UNBOUND:                 9.971
REMARK  11 active torsions:
REMARK  status: ('A' for Active; 'I' for Inactive)
REMARK    1  A    between atoms: C_14  and  O_3 
REMARK    2  A    between atoms: O_5  and  C_20 
REMARK    3  A    between atoms: C_26  and  O_6 
REMARK    4  A    between atoms: O_7  and  C_28 
REMARK    5  A    between atoms: O_8  and  C_33 
REMARK    6  A    between atoms: O_9  and  C_35 
REMARK    7  A    between atoms: O_10  and  C_37 
REMARK    8  A    between atoms: O_11  and  C_40 
REMARK    9  A    between atoms: O_12  and  C_42 
REMARK   10  A    between atoms: C_15  and  C_21 
REMARK   11  A    between atoms: C_27  and  C_34 
ROOT
ATOM      1  O   UNL d   1       4.188  42.754  24.235  0.00  0.00    -0.306 OA
ATOM      2  O   UNL d   1       2.750  39.599  24.195  0.00  0.00    -0.306 OA
ATOM      3  O   UNL d   1       4.995  45.033  21.445  0.00  0.00    -0.338 OA
ATOM      4  C   UNL d   1       3.417  41.190  23.505  0.00  0.00     0.097 A 
ATOM      5  C   UNL d   1       3.713  41.484  25.467  0.00  0.00     0.199 A 
ATOM      6  C   UNL d   1       3.357  40.885  24.456  0.00  0.00     0.231 A 
ATOM      7  C   UNL d   1       3.882  42.360  22.696  0.00  0.00     0.021 A 
ATOM      8  C   UNL d   1       2.847  40.091  22.656  0.00  0.00     0.020 A 
ATOM      9  C   UNL d   1       4.255  43.073  23.290  0.00  0.00     0.085 A 
ATOM     10  C   UNL d   1       2.554  39.341  23.249  0.00  0.00     0.085 A 
ATOM     11  C   UNL d   1       3.854  42.485  21.663  0.00  0.00     0.084 A 
ATOM     12  C   UNL d   1       4.220  43.365  21.242  0.00  0.00     0.012 A 
ATOM     13  C   UNL d   1       4.190  43.496  20.165  0.00  0.00     0.079 A 
ATOM     14  C   UNL d   1       4.609  44.108  21.861  0.00  0.00     0.081 A 
ATOM     15  C   UNL d   1       4.626  43.961  22.891  0.00  0.00     0.075 A 
ATOM     16  C   UNL d   1       4.571  44.413  19.726  0.00  0.00     0.156 A 
ATOM     17  C   UNL d   1       4.976  45.186  20.371  0.00  0.00     0.191 A 
ATOM     18  C   UNL d   1       2.734  40.032  21.623  0.00  0.00     0.078 A 
ATOM     19  C   UNL d   1       2.129  38.479  22.849  0.00  0.00     0.074 A 
ATOM     20  C   UNL d   1       2.311  39.178  21.200  0.00  0.00     0.073 A 
ATOM     21  C   UNL d   1       2.007  38.397  21.818  0.00  0.00     0.071 A 
ENDROOT
BRANCH   6  22
ATOM     22  C   UNL d   1       3.297  40.581  25.407  0.00  0.00     0.010 A 
ATOM     23  C   UNL d   1       4.032  40.031  25.802  0.00  0.00     0.052 A 
ATOM     24  C   UNL d   1       3.972  39.727  26.753  0.00  0.00     0.099 A 
ATOM     25  C   UNL d   1       3.177  39.973  27.307  0.00  0.00     0.098 A 
ATOM     26  C   UNL d   1       2.442  40.524  26.911  0.00  0.00     0.040 A 
ATOM     27  C   UNL d   1       2.502  40.827  25.961  0.00  0.00     0.015 A 
BRANCH  24  28
ATOM     28  O   UNL d   1       4.707  39.176  27.149  0.00  0.00    -0.358 OA
ATOM     29  H   UNL d   1       5.217  39.055  26.818  0.00  0.00     0.217 HD
ENDBRANCH  24  28
BRANCH  25  30
ATOM     30  O   UNL d   1       3.116  39.669  28.258  0.00  0.00    -0.358 OA
ATOM     31  H   UNL d   1       2.972  39.080  28.388  0.00  0.00     0.217 HD
ENDBRANCH  25  30
ENDBRANCH   6  22
BRANCH   5  32
ATOM     32  O   UNL d   1       3.964  41.877  26.351  0.00  0.00    -0.389 OA
ATOM     33  H   UNL d   1       3.616  42.322  26.603  0.00  0.00     0.210 HD
ENDBRANCH   5  32
BRANCH  11  34
ATOM     34  O   UNL d   1       3.479  41.766  21.078  0.00  0.00    -0.359 OA
ATOM     35  H   UNL d   1       3.438  41.184  21.288  0.00  0.00     0.217 HD
ENDBRANCH  11  34
BRANCH  18  36
ATOM     36  O   UNL d   1       3.030  40.788  21.040  0.00  0.00    -0.360 OA
ATOM     37  H   UNL d   1       3.636  40.894  20.953  0.00  0.00     0.217 HD
ENDBRANCH  18  36
BRANCH  21  38
ATOM     38  O   UNL d   1       1.600  37.573  21.423  0.00  0.00    -0.361 OA
ATOM     39  H   UNL d   1       1.352  37.142  21.793  0.00  0.00     0.217 HD
ENDBRANCH  21  38
BRANCH  17  40
ATOM     40  C   UNL d   1       5.330  46.036  19.977  0.00  0.00    -0.024 A 
ATOM     41  C   UNL d   1       6.185  46.027  19.459  0.00  0.00     0.049 A 
ATOM     42  C   UNL d   1       6.538  46.876  19.066  0.00  0.00     0.099 A 
ATOM     43  C   UNL d   1       6.037  47.732  19.191  0.00  0.00     0.098 A 
ATOM     44  C   UNL d   1       5.182  47.740  19.710  0.00  0.00     0.040 A 
ATOM     45  C   UNL d   1       4.828  46.891  20.103  0.00  0.00     0.013 A 
BRANCH  42  46
ATOM     46  O   UNL d   1       7.393  46.869  18.547  0.00  0.00    -0.358 OA
ATOM     47  H   UNL d   1       7.875  46.536  18.747  0.00  0.00     0.217 HD
ENDBRANCH  42  46
BRANCH  43  48
ATOM     48  O   UNL d   1       6.391  48.581  18.798  0.00  0.00    -0.358 OA
ATOM     49  H   UNL d   1       6.556  48.601  18.200  0.00  0.00     0.217 HD
ENDBRANCH  43  48
ENDBRANCH  17  40
BRANCH  16  50
ATOM     50  O   UNL d   1       4.549  44.544  18.736  0.00  0.00    -0.392 OA
ATOM     51  H   UNL d   1       4.366  44.082  18.366  0.00  0.00     0.210 HD
ENDBRANCH  16  50
TORSDOF 11
ENDMDL
MODEL 5
REMARK VINA RESULT:   -10.420      1.376      7.613
REMARK INTER + INTRA:          -5.017
REMARK INTER:                 -14.974
REMARK INTRA:                   9.958
REMARK UNBOUND:                 9.971
REMARK  11 active torsions:
REMARK  status: ('A' for Active; 'I' for Inactive)
REMARK    1  A    between atoms: C_14  and  O_3 
REMARK    2  A    between atoms: O_5  and  C_20 
REMARK    3  A    between atoms: C_26  and  O_6 
REMARK    4  A    between atoms: O_7  and  C_28 
REMARK    5  A    between atoms: O_8  and  C_33 
REMARK    6  A    between atoms: O_9  and  C_35 
REMARK    7  A    between atoms: O_10  and  C_37 
REMARK    8  A    between atoms: O_11  and  C_40 
REMARK    9  A    between atoms: O_12  and  C_42 
REMARK   10  A    between atoms: C_15  and  C_21 
REMARK   11  A    between atoms: C_27  and  C_34 
ROOT
ATOM      1  O   UNL d   1       5.186  44.300  23.809  0.00  0.00    -0.306 OA
ATOM      2  O   UNL d   1       3.822  44.037  20.633  0.00  0.00    -0.306 OA
ATOM      3  O   UNL d   1       4.341  42.494  26.916  0.00  0.00    -0.338 OA
ATOM      4  C   UNL d   1       4.048  43.667  22.439  0.00  0.00     0.097 A 
ATOM      5  C   UNL d   1       5.448  45.078  22.172  0.00  0.00     0.199 A 
ATOM      6  C   UNL d   1       4.537  44.317  21.858  0.00  0.00     0.231 A 
ATOM      7  C   UNL d   1       4.020  43.181  23.855  0.00  0.00     0.021 A 
ATOM      8  C   UNL d   1       3.031  42.984  21.574  0.00  0.00     0.020 A 
ATOM      9  C   UNL d   1       4.708  43.655  24.404  0.00  0.00     0.085 A 
ATOM     10  C   UNL d   1       3.097  43.347  20.645  0.00  0.00     0.085 A 
ATOM     11  C   UNL d   1       3.401  42.458  24.279  0.00  0.00     0.084 A 
ATOM     12  C   UNL d   1       3.501  42.225  25.290  0.00  0.00     0.012 A 
ATOM     13  C   UNL d   1       2.858  41.473  25.732  0.00  0.00     0.079 A 
ATOM     14  C   UNL d   1       4.219  42.719  25.862  0.00  0.00     0.081 A 
ATOM     15  C   UNL d   1       4.826  43.438  25.416  0.00  0.00     0.075 A 
ATOM     16  C   UNL d   1       2.962  41.230  26.785  0.00  0.00     0.156 A 
ATOM     17  C   UNL d   1       3.708  41.744  27.381  0.00  0.00     0.191 A 
ATOM     18  C   UNL d   1       2.334  42.247  21.811  0.00  0.00     0.078 A 
ATOM     19  C   UNL d   1       2.472  43.000  19.888  0.00  0.00     0.074 A 
ATOM     20  C   UNL d   1       1.697  41.884  21.070  0.00  0.00     0.073 A 
ATOM     21  C   UNL d   1       1.767  42.263  20.102  0.00  0.00     0.071 A 
ENDROOT
BRANCH   6  22
ATOM     22  C   UNL d   1       5.026  44.968  21.277  0.00  0.00     0.010 A 
ATOM     23  C   UNL d   1       4.656  45.887  21.136  0.00  0.00     0.052 A 
ATOM     24  C   UNL d   1       5.145  46.538  20.555  0.00  0.00     0.099 A 
ATOM     25  C   UNL d   1       6.002  46.270  20.115  0.00  0.00     0.098 A 
ATOM     26  C   UNL d   1       6.371  45.351  20.257  0.00  0.00     0.040 A 
ATOM     27  C   UNL d   1       5.883  44.700  20.837  0.00  0.00     0.015 A 
BRANCH  24  28
ATOM     28  O   UNL d   1       4.777  47.457  20.413  0.00  0.00    -0.358 OA
ATOM     29  H   UNL d   1       4.163  47.547  20.407  0.00  0.00     0.217 HD
ENDBRANCH  24  28
BRANCH  25  30
ATOM     30  O   UNL d   1       6.491  46.920  19.534  0.00  0.00    -0.358 OA
ATOM     31  H   UNL d   1       7.012  46.748  19.244  0.00  0.00     0.217 HD
ENDBRANCH  25  30
ENDBRANCH   6  22
BRANCH   5  32
ATOM     32  O   UNL d   1       6.189  45.734  22.314  0.00  0.00    -0.389 OA
ATOM     33  H   UNL d   1       6.754  45.534  22.471  0.00  0.00     0.210 HD
ENDBRANCH   5  32
BRANCH  11  34
ATOM     34  O   UNL d   1       2.716  41.990  23.721  0.00  0.00    -0.359 OA
ATOM     35  H   UNL d   1       2.117  42.139  23.775  0.00  0.00     0.217 HD
ENDBRANCH  11  34
BRANCH  18  36
ATOM     36  O   UNL d   1       2.276  41.890  22.743  0.00  0.00    -0.360 OA
ATOM     37  H   UNL d   1       2.308  41.279  22.843  0.00  0.00     0.217 HD
ENDBRANCH  18  36
BRANCH  21  38
ATOM     38  O   UNL d   1       1.161  41.922  19.384  0.00  0.00    -0.361 OA
ATOM     39  H   UNL d   1       0.588  41.732  19.526  0.00  0.00     0.217 HD
ENDBRANCH  21  38
BRANCH  17  40
ATOM     40  C   UNL d   1       3.813  41.529  28.352  0.00  0.00    -0.024 A 
ATOM     41  C   UNL d   1       3.294  42.041  29.036  0.00  0.00     0.049 A 
ATOM     42  C   UNL d   1       3.399  41.826  30.007  0.00  0.00     0.099 A 
ATOM     43  C   UNL d   1       4.022  41.098  30.293  0.00  0.00     0.098 A 
ATOM     44  C   UNL d   1       4.541  40.586  29.609  0.00  0.00     0.040 A 
ATOM     45  C   UNL d   1       4.436  40.801  28.638  0.00  0.00     0.013 A 
BRANCH  42  46
ATOM     46  O   UNL d   1       2.881  42.338  30.692  0.00  0.00    -0.358 OA
ATOM     47  H   UNL d   1       3.024  42.286  31.292  0.00  0.00     0.217 HD
ENDBRANCH  42  46
BRANCH  43  48
ATOM     48  O   UNL d   1       4.127  40.883  31.264  0.00  0.00    -0.358 OA
ATOM     49  H   UNL d   1       4.290  41.328  31.665  0.00  0.00     0.217 HD
ENDBRANCH  43  48
ENDBRANCH  17  40
BRANCH  16  50
ATOM     50  O   UNL d   1       2.373  40.538  27.202  0.00  0.00    -0.392 OA
ATOM     51  H   UNL d   1       1.782  40.484  27.023  0.00  0.00     0.210 HD
ENDBRANCH  16  50
TORSDOF 11
ENDMDL
