MODEL 1
REMARK VINA RESULT:    -5.693      0.000      0.000
REMARK INTER + INTRA:          -5.693
REMARK INTER:                  -5.693
REMARK INTRA:                   0.000
REMARK UNBOUND:                 0.000
REMARK  0 active torsions:
REMARK  status: ('A' for Active; 'I' for Inactive)
ROOT
ATOM      1  O   UNL d   1      15.767  10.755  44.961  0.00  0.00    -0.265 OA
ATOM      2  O   UNL d   1      18.292  12.029  46.960  0.00  0.00    -0.246 OA
ATOM      3  N   UNL d   1      16.900  11.298  47.685  0.00  0.00    -0.286 N 
ATOM      4  N   UNL d   1      14.761  10.206  46.805  0.00  0.00    -0.338 N 
ATOM      5  N   UNL d   1      17.029  11.392  45.961  0.00  0.00    -0.269 N 
ATOM      6  N   UNL d   1      15.369  10.498  48.267  0.00  0.00    -0.223 NA
ATOM      7  C   UNL d   1      15.637  10.661  46.686  0.00  0.00     0.151 A 
ATOM      8  C   UNL d   1      16.014  10.842  47.594  0.00  0.00     0.167 A 
ATOM      9  C   UNL d   1      16.144  10.936  45.869  0.00  0.00     0.282 A 
ATOM     10  C   UNL d   1      17.407  11.573  46.869  0.00  0.00     0.332 A 
ATOM     11  C   UNL d   1      14.595  10.105  47.780  0.00  0.00     0.212 A 
ATOM     12  C   UNL d   1      17.277  11.479  48.593  0.00  0.00     0.163 C 
ATOM     13  C   UNL d   1      14.152   9.903  46.072  0.00  0.00     0.157 C 
ATOM     14  C   UNL d   1      17.537  11.667  45.144  0.00  0.00     0.164 C 
ENDROOT
TORSDOF 0
ENDMDL
MODEL 2
REMARK VINA RESULT:    -5.607      1.093      2.685
REMARK INTER + INTRA:          -5.607
REMARK INTER:                  -5.607
REMARK INTRA:                   0.000
REMARK UNBOUND:                 0.000
REMARK  0 active torsions:
REMARK  status: ('A' for Active; 'I' for Inactive)
ROOT
ATOM      1  O   UNL d   1      16.785  11.473  45.126  0.00  0.00    -0.265 OA
ATOM      2  O   UNL d   1      13.942   9.927  46.360  0.00  0.00    -0.246 OA
ATOM      3  N   UNL d   1      15.158  10.502  47.451  0.00  0.00    -0.286 N 
ATOM      4  N   UNL d   1      17.409  11.688  47.194  0.00  0.00    -0.338 N 
ATOM      5  N   UNL d   1      15.364  10.700  45.743  0.00  0.00    -0.269 N 
ATOM      6  N   UNL d   1      16.535  11.167  48.442  0.00  0.00    -0.223 NA
ATOM      7  C   UNL d   1      16.579  11.275  46.834  0.00  0.00     0.151 A 
ATOM      8  C   UNL d   1      16.037  10.952  47.609  0.00  0.00     0.167 A 
ATOM      9  C   UNL d   1      16.243  11.150  45.901  0.00  0.00     0.282 A 
ATOM     10  C   UNL d   1      14.821  10.376  46.518  0.00  0.00     0.332 A 
ATOM     11  C   UNL d   1      17.382  11.622  48.186  0.00  0.00     0.212 A 
ATOM     12  C   UNL d   1      14.615  10.178  48.226  0.00  0.00     0.163 C 
ATOM     13  C   UNL d   1      18.143  12.099  46.653  0.00  0.00     0.157 C 
ATOM     14  C   UNL d   1      15.027  10.574  44.810  0.00  0.00     0.164 C 
ENDROOT
TORSDOF 0
ENDMDL
MODEL 3
REMARK VINA RESULT:    -5.033      1.563      2.634
REMARK INTER + INTRA:          -5.033
REMARK INTER:                  -5.033
REMARK INTRA:                   0.000
REMARK UNBOUND:                 0.000
REMARK  0 active torsions:
REMARK  status: ('A' for Active; 'I' for Inactive)
ROOT
ATOM      1  O   UNL d   1      14.065   9.703  45.916  0.00  0.00    -0.265 OA
ATOM      2  O   UNL d   1      16.274  11.561  47.831  0.00  0.00    -0.246 OA
ATOM      3  N   UNL d   1      16.727  11.047  46.241  0.00  0.00    -0.286 N 
ATOM      4  N   UNL d   1      15.600   9.700  44.382  0.00  0.00    -0.338 N 
ATOM      5  N   UNL d   1      15.169  10.632  46.874  0.00  0.00    -0.269 N 
ATOM      6  N   UNL d   1      17.029  10.421  44.556  0.00  0.00    -0.223 NA
ATOM      7  C   UNL d   1      15.623  10.118  45.283  0.00  0.00     0.151 A 
ATOM      8  C   UNL d   1      16.510  10.566  45.391  0.00  0.00     0.167 A 
ATOM      9  C   UNL d   1      14.952  10.151  46.025  0.00  0.00     0.282 A 
ATOM     10  C   UNL d   1      16.057  11.080  46.982  0.00  0.00     0.332 A 
ATOM     11  C   UNL d   1      16.467   9.887  43.932  0.00  0.00     0.212 A 
ATOM     12  C   UNL d   1      17.615  11.495  46.349  0.00  0.00     0.163 C 
ATOM     13  C   UNL d   1      14.838   9.182  43.993  0.00  0.00     0.157 C 
ATOM     14  C   UNL d   1      14.499  10.665  47.615  0.00  0.00     0.164 C 
ENDROOT
TORSDOF 0
ENDMDL
MODEL 4
REMARK VINA RESULT:    -4.832     23.830     24.351
REMARK INTER + INTRA:          -4.832
REMARK INTER:                  -4.832
REMARK INTRA:                   0.000
REMARK UNBOUND:                 0.000
REMARK  0 active torsions:
REMARK  status: ('A' for Active; 'I' for Inactive)
ROOT
ATOM      1  O   UNL d   1      22.490 -11.336  46.330  0.00  0.00    -0.265 OA
ATOM      2  O   UNL d   1      19.709 -12.737  47.846  0.00  0.00    -0.246 OA
ATOM      3  N   UNL d   1      20.241 -13.321  46.305  0.00  0.00    -0.286 N 
ATOM      4  N   UNL d   1      22.150 -12.737  44.707  0.00  0.00    -0.338 N 
ATOM      5  N   UNL d   1      21.100 -12.037  47.088  0.00  0.00    -0.269 N 
ATOM      6  N   UNL d   1      20.943 -13.802  44.693  0.00  0.00    -0.223 NA
ATOM      7  C   UNL d   1      21.631 -12.620  45.546  0.00  0.00     0.151 A 
ATOM      8  C   UNL d   1      20.881 -13.281  45.538  0.00  0.00     0.167 A 
ATOM      9  C   UNL d   1      21.740 -11.998  46.321  0.00  0.00     0.282 A 
ATOM     10  C   UNL d   1      20.350 -12.698  47.080  0.00  0.00     0.332 A 
ATOM     11  C   UNL d   1      21.726 -13.466  44.180  0.00  0.00     0.212 A 
ATOM     12  C   UNL d   1      19.491 -13.982  46.296  0.00  0.00     0.163 C 
ATOM     13  C   UNL d   1      22.958 -12.213  44.438  0.00  0.00     0.157 C 
ATOM     14  C   UNL d   1      21.209 -11.414  47.863  0.00  0.00     0.164 C 
ENDROOT
TORSDOF 0
ENDMDL
MODEL 5
REMARK VINA RESULT:    -4.786      7.076      8.672
REMARK INTER + INTRA:          -4.786
REMARK INTER:                  -4.786
REMARK INTRA:                   0.000
REMARK UNBOUND:                 0.000
REMARK  0 active torsions:
REMARK  status: ('A' for Active; 'I' for Inactive)
ROOT
ATOM      1  O   UNL d   1      25.331  15.053  45.321  0.00  0.00    -0.265 OA
ATOM      2  O   UNL d   1      23.823  12.089  46.292  0.00  0.00    -0.246 OA
ATOM      3  N   UNL d   1      23.003  13.596  46.528  0.00  0.00    -0.286 N 
ATOM      4  N   UNL d   1      23.545  16.049  46.049  0.00  0.00    -0.338 N 
ATOM      5  N   UNL d   1      24.577  13.571  45.807  0.00  0.00    -0.269 N 
ATOM      6  N   UNL d   1      22.296  15.267  46.697  0.00  0.00    -0.223 NA
ATOM      7  C   UNL d   1      23.756  15.078  46.043  0.00  0.00     0.151 A 
ATOM      8  C   UNL d   1      22.980  14.592  46.445  0.00  0.00     0.167 A 
ATOM      9  C   UNL d   1      24.555  14.567  45.724  0.00  0.00     0.282 A 
ATOM     10  C   UNL d   1      23.801  13.085  46.209  0.00  0.00     0.332 A 
ATOM     11  C   UNL d   1      22.644  16.166  46.453  0.00  0.00     0.212 A 
ATOM     12  C   UNL d   1      22.226  13.110  46.931  0.00  0.00     0.163 C 
ATOM     13  C   UNL d   1      24.135  16.781  45.709  0.00  0.00     0.157 C 
ATOM     14  C   UNL d   1      25.375  13.060  45.488  0.00  0.00     0.164 C 
ENDROOT
TORSDOF 0
ENDMDL
