MODEL 1
REMARK VINA RESULT:    -6.742      0.000      0.000
REMARK INTER + INTRA:          -7.510
REMARK INTER:                  -8.495
REMARK INTRA:                   0.985
REMARK UNBOUND:                 1.005
REMARK  6 active torsions:
REMARK  status: ('A' for Active; 'I' for Inactive)
REMARK    1  A    between atoms: O_1  and  C_8 
REMARK    2  A    between atoms: O_2  and  C_9 
REMARK    3  A    between atoms: O_3  and  C_13 
REMARK    4  A    between atoms: C_5  and  C_11 
REMARK    5  A    between atoms: C_11  and  C_12 
REMARK    6  A    between atoms: C_12  and  C_13 
ROOT
ATOM      1  C   UNL d   1       6.431 -21.236 -27.766  0.00  0.00    -0.033 A 
ATOM      2  C   UNL d   1       7.346 -21.142 -27.373  0.00  0.00     0.050 A 
ATOM      3  C   UNL d   1       6.180 -20.711 -28.579  0.00  0.00     0.014 A 
ATOM      4  C   UNL d   1       8.009 -20.523 -27.792  0.00  0.00     0.099 A 
ATOM      5  C   UNL d   1       7.758 -19.997 -28.605  0.00  0.00     0.098 A 
ATOM      6  C   UNL d   1       6.844 -20.092 -28.999  0.00  0.00     0.040 A 
ENDROOT
BRANCH   1   7
ATOM      7  C   UNL d   1       5.768 -21.856 -27.346  0.00  0.00     0.018 C 
BRANCH   7   8
ATOM      8  C   UNL d   1       5.532 -21.756 -26.380  0.00  0.00     0.082 C 
BRANCH   8   9
ATOM      9  C   UNL d   1       4.793 -22.303 -25.986  0.00  0.00     0.165 C 
ATOM     10  O   UNL d   1       3.960 -21.856 -25.659  0.00  0.00    -0.647 OA
BRANCH   9  11
ATOM     11  O   UNL d   1       4.887 -23.296 -25.919  0.00  0.00    -0.773 OA
ATOM     12  H   UNL d   1       4.711 -23.590 -25.403  0.00  0.00     0.167 HD
ENDBRANCH   9  11
ENDBRANCH   8   9
ENDBRANCH   7   8
ENDBRANCH   1   7
BRANCH   4  13
ATOM     13  O   UNL d   1       8.924 -20.429 -27.399  0.00  0.00    -0.358 OA
ATOM     14  H   UNL d   1       9.247 -19.907 -27.486  0.00  0.00     0.217 HD
ENDBRANCH   4  13
BRANCH   5  15
ATOM     15  O   UNL d   1       8.422 -19.378 -29.025  0.00  0.00    -0.358 OA
ATOM     16  H   UNL d   1       9.028 -19.450 -28.913  0.00  0.00     0.217 HD
ENDBRANCH   5  15
TORSDOF 6
ENDMDL
MODEL 2
REMARK VINA RESULT:    -6.599     24.967     25.976
REMARK INTER + INTRA:          -7.331
REMARK INTER:                  -8.344
REMARK INTRA:                   1.013
REMARK UNBOUND:                 1.005
REMARK  6 active torsions:
REMARK  status: ('A' for Active; 'I' for Inactive)
REMARK    1  A    between atoms: O_1  and  C_8 
REMARK    2  A    between atoms: O_2  and  C_9 
REMARK    3  A    between atoms: O_3  and  C_13 
REMARK    4  A    between atoms: C_5  and  C_11 
REMARK    5  A    between atoms: C_11  and  C_12 
REMARK    6  A    between atoms: C_12  and  C_13 
ROOT
ATOM      1  C   UNL d   1     -12.831  -4.612 -32.579  0.00  0.00    -0.033 A 
ATOM      2  C   UNL d   1     -13.388  -5.442 -32.613  0.00  0.00     0.050 A 
ATOM      3  C   UNL d   1     -12.812  -4.057 -31.748  0.00  0.00     0.014 A 
ATOM      4  C   UNL d   1     -13.925  -5.717 -31.815  0.00  0.00     0.099 A 
ATOM      5  C   UNL d   1     -13.905  -5.161 -30.984  0.00  0.00     0.098 A 
ATOM      6  C   UNL d   1     -13.349  -4.331 -30.950  0.00  0.00     0.040 A 
ENDROOT
BRANCH   1   7
ATOM      7  C   UNL d   1     -12.294  -4.337 -33.377  0.00  0.00     0.018 C 
BRANCH   7   8
ATOM      8  C   UNL d   1     -11.538  -4.911 -33.692  0.00  0.00     0.082 C 
BRANCH   8   9
ATOM      9  C   UNL d   1     -10.847  -4.533 -34.308  0.00  0.00     0.165 C 
ATOM     10  O   UNL d   1      -9.877  -4.713 -34.142  0.00  0.00    -0.647 OA
BRANCH   9  11
ATOM     11  O   UNL d   1     -11.125  -3.975 -35.089  0.00  0.00    -0.773 OA
ATOM     12  H   UNL d   1     -11.690  -4.045 -35.335  0.00  0.00     0.167 HD
ENDBRANCH   9  11
ENDBRANCH   8   9
ENDBRANCH   7   8
ENDBRANCH   1   7
BRANCH   4  13
ATOM     13  O   UNL d   1     -14.481  -6.547 -31.849  0.00  0.00    -0.358 OA
ATOM     14  H   UNL d   1     -14.214  -7.095 -31.960  0.00  0.00     0.217 HD
ENDBRANCH   4  13
BRANCH   5  15
ATOM     15  O   UNL d   1     -14.443  -5.436 -30.187  0.00  0.00    -0.358 OA
ATOM     16  H   UNL d   1     -15.009  -5.200 -30.098  0.00  0.00     0.217 HD
ENDBRANCH   5  15
TORSDOF 6
ENDMDL
MODEL 3
REMARK VINA RESULT:    -6.434     44.768     45.417
REMARK INTER + INTRA:          -7.122
REMARK INTER:                  -8.119
REMARK INTRA:                   0.997
REMARK UNBOUND:                 1.005
REMARK  6 active torsions:
REMARK  status: ('A' for Active; 'I' for Inactive)
REMARK    1  A    between atoms: O_1  and  C_8 
REMARK    2  A    between atoms: O_2  and  C_9 
REMARK    3  A    between atoms: O_3  and  C_13 
REMARK    4  A    between atoms: C_5  and  C_11 
REMARK    5  A    between atoms: C_11  and  C_12 
REMARK    6  A    between atoms: C_12  and  C_13 
ROOT
ATOM      1  C   UNL d   1     -15.619  18.866 -26.450  0.00  0.00    -0.033 A 
ATOM      2  C   UNL d   1     -15.430  18.036 -26.975  0.00  0.00     0.050 A 
ATOM      3  C   UNL d   1     -15.118  19.709 -26.649  0.00  0.00     0.014 A 
ATOM      4  C   UNL d   1     -14.740  18.048 -27.698  0.00  0.00     0.099 A 
ATOM      5  C   UNL d   1     -14.239  18.890 -27.897  0.00  0.00     0.098 A 
ATOM      6  C   UNL d   1     -14.428  19.721 -27.373  0.00  0.00     0.040 A 
ENDROOT
BRANCH   1   7
ATOM      7  C   UNL d   1     -16.309  18.854 -25.727  0.00  0.00     0.018 C 
BRANCH   7   8
ATOM      8  C   UNL d   1     -16.069  18.529 -24.812  0.00  0.00     0.082 C 
BRANCH   8   9
ATOM      9  C   UNL d   1     -16.790  18.290 -24.161  0.00  0.00     0.165 C 
ATOM     10  O   UNL d   1     -17.439  18.986 -23.856  0.00  0.00    -0.647 OA
BRANCH   9  11
ATOM     11  O   UNL d   1     -16.860  17.354 -23.815  0.00  0.00    -0.773 OA
ATOM     12  H   UNL d   1     -17.417  17.113 -23.684  0.00  0.00     0.167 HD
ENDBRANCH   9  11
ENDBRANCH   8   9
ENDBRANCH   7   8
ENDBRANCH   1   7
BRANCH   4  13
ATOM     13  O   UNL d   1     -14.551  17.218 -28.223  0.00  0.00    -0.358 OA
ATOM     14  H   UNL d   1     -14.292  16.728 -27.945  0.00  0.00     0.217 HD
ENDBRANCH   4  13
BRANCH   5  15
ATOM     15  O   UNL d   1     -13.548  18.902 -28.621  0.00  0.00    -0.358 OA
ATOM     16  H   UNL d   1     -13.003  19.181 -28.524  0.00  0.00     0.217 HD
ENDBRANCH   5  15
TORSDOF 6
ENDMDL
MODEL 4
REMARK VINA RESULT:    -6.373     45.192     45.992
REMARK INTER + INTRA:          -7.045
REMARK INTER:                  -8.070
REMARK INTRA:                   1.025
REMARK UNBOUND:                 1.005
REMARK  6 active torsions:
REMARK  status: ('A' for Active; 'I' for Inactive)
REMARK    1  A    between atoms: O_1  and  C_8 
REMARK    2  A    between atoms: O_2  and  C_9 
REMARK    3  A    between atoms: O_3  and  C_13 
REMARK    4  A    between atoms: C_5  and  C_11 
REMARK    5  A    between atoms: C_11  and  C_12 
REMARK    6  A    between atoms: C_12  and  C_13 
ROOT
ATOM      1  C   UNL d   1     -15.357  19.306 -25.869  0.00  0.00    -0.033 A 
ATOM      2  C   UNL d   1     -16.340  19.146 -25.967  0.00  0.00     0.050 A 
ATOM      3  C   UNL d   1     -14.923  19.221 -24.973  0.00  0.00     0.014 A 
ATOM      4  C   UNL d   1     -16.888  18.902 -25.167  0.00  0.00     0.099 A 
ATOM      5  C   UNL d   1     -16.454  18.817 -24.270  0.00  0.00     0.098 A 
ATOM      6  C   UNL d   1     -15.472  18.976 -24.173  0.00  0.00     0.040 A 
ENDROOT
BRANCH   1   7
ATOM      7  C   UNL d   1     -14.809  19.550 -26.669  0.00  0.00     0.018 C 
BRANCH   7   8
ATOM      8  C   UNL d   1     -14.818  18.964 -27.479  0.00  0.00     0.082 C 
BRANCH   8   9
ATOM      9  C   UNL d   1     -14.074  19.021 -28.146  0.00  0.00     0.165 C 
ATOM     10  O   UNL d   1     -13.541  18.206 -28.371  0.00  0.00    -0.647 OA
BRANCH   9  11
ATOM     11  O   UNL d   1     -13.865  19.894 -28.587  0.00  0.00    -0.773 OA
ATOM     12  H   UNL d   1     -14.306  20.197 -28.900  0.00  0.00     0.167 HD
ENDBRANCH   9  11
ENDBRANCH   8   9
ENDBRANCH   7   8
ENDBRANCH   1   7
BRANCH   4  13
ATOM     13  O   UNL d   1     -17.871  18.742 -25.264  0.00  0.00    -0.358 OA
ATOM     14  H   UNL d   1     -18.080  18.176 -25.406  0.00  0.00     0.217 HD
ENDBRANCH   4  13
BRANCH   5  15
ATOM     15  O   UNL d   1     -17.003  18.572 -23.470  0.00  0.00    -0.358 OA
ATOM     16  H   UNL d   1     -16.949  18.008 -23.219  0.00  0.00     0.217 HD
ENDBRANCH   5  15
TORSDOF 6
ENDMDL
MODEL 5
REMARK VINA RESULT:    -6.363     25.440     26.147
REMARK INTER + INTRA:          -7.032
REMARK INTER:                  -8.033
REMARK INTRA:                   1.001
REMARK UNBOUND:                 1.005
REMARK  6 active torsions:
REMARK  status: ('A' for Active; 'I' for Inactive)
REMARK    1  A    between atoms: O_1  and  C_8 
REMARK    2  A    between atoms: O_2  and  C_9 
REMARK    3  A    between atoms: O_3  and  C_13 
REMARK    4  A    between atoms: C_5  and  C_11 
REMARK    5  A    between atoms: C_11  and  C_12 
REMARK    6  A    between atoms: C_12  and  C_13 
ROOT
ATOM      1  C   UNL d   1      -0.879 -40.401 -11.390  0.00  0.00    -0.033 A 
ATOM      2  C   UNL d   1       0.037 -40.121 -11.675  0.00  0.00     0.050 A 
ATOM      3  C   UNL d   1      -1.074 -40.562 -10.422  0.00  0.00     0.014 A 
ATOM      4  C   UNL d   1       0.759 -40.002 -10.993  0.00  0.00     0.099 A 
ATOM      5  C   UNL d   1       0.564 -40.163 -10.026  0.00  0.00     0.098 A 
ATOM      6  C   UNL d   1      -0.353 -40.443  -9.740  0.00  0.00     0.040 A 
ENDROOT
BRANCH   1   7
ATOM      7  C   UNL d   1      -1.601 -40.520 -12.072  0.00  0.00     0.018 C 
BRANCH   7   8
ATOM      8  C   UNL d   1      -2.436 -39.972 -12.017  0.00  0.00     0.082 C 
BRANCH   8   9
ATOM      9  C   UNL d   1      -3.134 -40.051 -12.729  0.00  0.00     0.165 C 
ATOM     10  O   UNL d   1      -3.612 -40.919 -12.866  0.00  0.00    -0.647 OA
BRANCH   9  11
ATOM     11  O   UNL d   1      -3.353 -39.263 -13.303  0.00  0.00    -0.773 OA
ATOM     12  H   UNL d   1      -2.967 -38.778 -13.326  0.00  0.00     0.167 HD
ENDBRANCH   9  11
ENDBRANCH   8   9
ENDBRANCH   7   8
ENDBRANCH   1   7
BRANCH   4  13
ATOM     13  O   UNL d   1       1.676 -39.723 -11.279  0.00  0.00    -0.358 OA
ATOM     14  H   UNL d   1       2.158 -40.100 -11.185  0.00  0.00     0.217 HD
ENDBRANCH   4  13
BRANCH   5  15
ATOM     15  O   UNL d   1       1.286 -40.044  -9.344  0.00  0.00    -0.358 OA
ATOM     16  H   UNL d   1       1.169 -40.158  -8.746  0.00  0.00     0.217 HD
ENDBRANCH   5  15
TORSDOF 6
ENDMDL
