MODEL 1
REMARK VINA RESULT:    -7.009      0.000      0.000
REMARK INTER + INTRA:          -7.674
REMARK INTER:                  -8.641
REMARK INTRA:                   0.967
REMARK UNBOUND:                 1.179
REMARK  6 active torsions:
REMARK  status: ('A' for Active; 'I' for Inactive)
REMARK    1  A    between atoms: O_1  and  C_12 
REMARK    2  A    between atoms: O_1  and  C_13 
REMARK    3  A    between atoms: O_2  and  C_9 
REMARK    4  A    between atoms: O_3  and  C_10 
REMARK    5  A    between atoms: O_4  and  C_11 
REMARK    6  A    between atoms: C_6  and  C_12 
ROOT
ATOM      1  C   UNL d   1     -37.158 -41.571  -1.123  0.00  0.00     0.044 A 
ATOM      2  C   UNL d   1     -36.516 -41.379  -1.866  0.00  0.00     0.057 A 
ATOM      3  C   UNL d   1     -37.152 -42.465  -0.675  0.00  0.00     0.057 A 
ATOM      4  C   UNL d   1     -36.504 -43.167  -0.971  0.00  0.00     0.102 A 
ATOM      5  C   UNL d   1     -35.869 -42.081  -2.161  0.00  0.00     0.102 A 
ATOM      6  C   UNL d   1     -35.863 -42.976  -1.714  0.00  0.00     0.132 A 
ENDROOT
BRANCH   1   7
ATOM      7  C   UNL d   1     -37.805 -40.868  -0.828  0.00  0.00     0.293 C 
ATOM      8  O   UNL d   1     -37.474 -39.962  -0.564  0.00  0.00    -0.259 OA
BRANCH   7   9
ATOM      9  O   UNL d   1     -38.784 -41.071  -0.796  0.00  0.00    -0.318 OA
BRANCH   9  10
ATOM     10  C   UNL d   1     -39.450 -40.326  -0.813  0.00  0.00     0.174 C 
ATOM     11  C   UNL d   1     -40.427 -40.528  -0.748  0.00  0.00     0.034 C 
ENDBRANCH   9  10
ENDBRANCH   7   9
ENDBRANCH   1   7
BRANCH   5  12
ATOM     12  O   UNL d   1     -35.228 -41.890  -2.904  0.00  0.00    -0.358 OA
ATOM     13  H   UNL d   1     -34.755 -42.276  -3.013  0.00  0.00     0.217 HD
ENDBRANCH   5  12
BRANCH   4  14
ATOM     14  O   UNL d   1     -36.498 -44.061  -0.523  0.00  0.00    -0.358 OA
ATOM     15  H   UNL d   1     -37.005 -44.265  -0.231  0.00  0.00     0.217 HD
ENDBRANCH   4  14
BRANCH   6  16
ATOM     16  O   UNL d   1     -35.215 -43.678  -2.009  0.00  0.00    -0.356 OA
ATOM     17  H   UNL d   1     -35.421 -44.188  -2.295  0.00  0.00     0.218 HD
ENDBRANCH   6  16
TORSDOF 6
ENDMDL
MODEL 2
REMARK VINA RESULT:    -6.965     82.550     83.564
REMARK INTER + INTRA:          -7.618
REMARK INTER:                  -8.593
REMARK INTRA:                   0.975
REMARK UNBOUND:                 1.179
REMARK  6 active torsions:
REMARK  status: ('A' for Active; 'I' for Inactive)
REMARK    1  A    between atoms: O_1  and  C_12 
REMARK    2  A    between atoms: O_1  and  C_13 
REMARK    3  A    between atoms: O_2  and  C_9 
REMARK    4  A    between atoms: O_3  and  C_10 
REMARK    5  A    between atoms: O_4  and  C_11 
REMARK    6  A    between atoms: C_6  and  C_12 
ROOT
ATOM      1  C   UNL d   1      -0.104  32.109 -13.635  0.00  0.00     0.044 A 
ATOM      2  C   UNL d   1      -0.681  32.017 -14.446  0.00  0.00     0.057 A 
ATOM      3  C   UNL d   1       0.886  32.208 -13.735  0.00  0.00     0.057 A 
ATOM      4  C   UNL d   1       1.299  32.216 -14.646  0.00  0.00     0.102 A 
ATOM      5  C   UNL d   1      -0.269  32.024 -15.357  0.00  0.00     0.102 A 
ATOM      6  C   UNL d   1       0.721  32.124 -15.457  0.00  0.00     0.132 A 
ENDROOT
BRANCH   1   7
ATOM      7  C   UNL d   1      -0.516  32.101 -12.724  0.00  0.00     0.293 C 
ATOM      8  O   UNL d   1      -0.848  32.952 -12.318  0.00  0.00    -0.259 OA
BRANCH   7   9
ATOM      9  O   UNL d   1      -0.596  31.242 -12.219  0.00  0.00    -0.318 OA
BRANCH   9  10
ATOM     10  C   UNL d   1      -1.377  31.088 -11.614  0.00  0.00     0.174 C 
ATOM     11  C   UNL d   1      -1.532  30.184 -11.217  0.00  0.00     0.034 C 
ENDBRANCH   9  10
ENDBRANCH   7   9
ENDBRANCH   1   7
BRANCH   5  12
ATOM     12  O   UNL d   1      -0.846  31.932 -16.168  0.00  0.00    -0.358 OA
ATOM     13  H   UNL d   1      -0.613  31.691 -16.690  0.00  0.00     0.217 HD
ENDBRANCH   5  12
BRANCH   4  14
ATOM     14  O   UNL d   1       2.289  32.316 -14.746  0.00  0.00    -0.358 OA
ATOM     15  H   UNL d   1       2.520  32.684 -15.188  0.00  0.00     0.217 HD
ENDBRANCH   4  14
BRANCH   6  16
ATOM     16  O   UNL d   1       1.134  32.132 -16.368  0.00  0.00    -0.356 OA
ATOM     17  H   UNL d   1       0.783  32.247 -16.866  0.00  0.00     0.218 HD
ENDBRANCH   6  16
TORSDOF 6
ENDMDL
MODEL 3
REMARK VINA RESULT:    -6.953     76.936     77.729
REMARK INTER + INTRA:          -7.603
REMARK INTER:                  -8.480
REMARK INTRA:                   0.877
REMARK UNBOUND:                 1.179
REMARK  6 active torsions:
REMARK  status: ('A' for Active; 'I' for Inactive)
REMARK    1  A    between atoms: O_1  and  C_12 
REMARK    2  A    between atoms: O_1  and  C_13 
REMARK    3  A    between atoms: O_2  and  C_9 
REMARK    4  A    between atoms: O_3  and  C_10 
REMARK    5  A    between atoms: O_4  and  C_11 
REMARK    6  A    between atoms: C_6  and  C_12 
ROOT
ATOM      1  C   UNL d   1     -41.884  32.645  19.826  0.00  0.00     0.044 A 
ATOM      2  C   UNL d   1     -41.556  32.742  18.886  0.00  0.00     0.057 A 
ATOM      3  C   UNL d   1     -42.841  32.414  19.999  0.00  0.00     0.057 A 
ATOM      4  C   UNL d   1     -43.470  32.280  19.234  0.00  0.00     0.102 A 
ATOM      5  C   UNL d   1     -42.185  32.608  18.120  0.00  0.00     0.102 A 
ATOM      6  C   UNL d   1     -43.142  32.377  18.294  0.00  0.00     0.132 A 
ENDROOT
BRANCH   1   7
ATOM      7  C   UNL d   1     -41.255  32.779  20.591  0.00  0.00     0.293 C 
ATOM      8  O   UNL d   1     -40.563  32.087  20.797  0.00  0.00    -0.259 OA
BRANCH   7   9
ATOM      9  O   UNL d   1     -41.318  33.605  21.151  0.00  0.00    -0.318 OA
BRANCH   9  10
ATOM     10  C   UNL d   1     -40.639  33.778  21.865  0.00  0.00     0.174 C 
ATOM     11  C   UNL d   1     -40.686  34.617  22.407  0.00  0.00     0.034 C 
ENDBRANCH   9  10
ENDBRANCH   7   9
ENDBRANCH   1   7
BRANCH   5  12
ATOM     12  O   UNL d   1     -41.856  32.704  17.181  0.00  0.00    -0.358 OA
ATOM     13  H   UNL d   1     -42.132  33.104  16.795  0.00  0.00     0.217 HD
ENDBRANCH   5  12
BRANCH   4  14
ATOM     14  O   UNL d   1     -44.428  32.049  19.407  0.00  0.00    -0.358 OA
ATOM     15  H   UNL d   1     -44.580  31.479  19.598  0.00  0.00     0.217 HD
ENDBRANCH   4  14
BRANCH   6  16
ATOM     16  O   UNL d   1     -43.771  32.243  17.528  0.00  0.00    -0.356 OA
ATOM     17  H   UNL d   1     -44.265  32.612  17.465  0.00  0.00     0.218 HD
ENDBRANCH   6  16
TORSDOF 6
ENDMDL
MODEL 4
REMARK VINA RESULT:    -6.779     81.758     82.808
REMARK INTER + INTRA:          -7.383
REMARK INTER:                  -8.368
REMARK INTRA:                   0.985
REMARK UNBOUND:                 1.179
REMARK  6 active torsions:
REMARK  status: ('A' for Active; 'I' for Inactive)
REMARK    1  A    between atoms: O_1  and  C_12 
REMARK    2  A    between atoms: O_1  and  C_13 
REMARK    3  A    between atoms: O_2  and  C_9 
REMARK    4  A    between atoms: O_3  and  C_10 
REMARK    5  A    between atoms: O_4  and  C_11 
REMARK    6  A    between atoms: C_6  and  C_12 
ROOT
ATOM      1  C   UNL d   1      -0.918  31.740 -13.488  0.00  0.00     0.044 A 
ATOM      2  C   UNL d   1      -1.404  30.874 -13.374  0.00  0.00     0.057 A 
ATOM      3  C   UNL d   1      -0.936  32.212 -14.369  0.00  0.00     0.057 A 
ATOM      4  C   UNL d   1      -1.440  31.817 -15.138  0.00  0.00     0.102 A 
ATOM      5  C   UNL d   1      -1.908  30.478 -14.143  0.00  0.00     0.102 A 
ATOM      6  C   UNL d   1      -1.926  30.950 -15.024  0.00  0.00     0.132 A 
ENDROOT
BRANCH   1   7
ATOM      7  C   UNL d   1      -0.415  32.135 -12.719  0.00  0.00     0.293 C 
ATOM      8  O   UNL d   1      -0.887  32.722 -12.061  0.00  0.00    -0.259 OA
BRANCH   7   9
ATOM      9  O   UNL d   1       0.560  31.944 -12.609  0.00  0.00    -0.318 OA
BRANCH   9  10
ATOM     10  C   UNL d   1       0.954  31.862 -11.694  0.00  0.00     0.174 C 
ATOM     11  C   UNL d   1       1.887  31.521 -11.579  0.00  0.00     0.034 C 
ENDBRANCH   9  10
ENDBRANCH   7   9
ENDBRANCH   1   7
BRANCH   5  12
ATOM     12  O   UNL d   1      -2.394  29.612 -14.029  0.00  0.00    -0.358 OA
ATOM     13  H   UNL d   1      -2.084  29.104 -13.854  0.00  0.00     0.217 HD
ENDBRANCH   5  12
BRANCH   4  14
ATOM     14  O   UNL d   1      -1.458  32.288 -16.019  0.00  0.00    -0.358 OA
ATOM     15  H   UNL d   1      -1.030  32.158 -16.449  0.00  0.00     0.217 HD
ENDBRANCH   4  14
BRANCH   6  16
ATOM     16  O   UNL d   1      -2.429  30.555 -15.793  0.00  0.00    -0.356 OA
ATOM     17  H   UNL d   1      -2.193  30.072 -16.103  0.00  0.00     0.218 HD
ENDBRANCH   6  16
TORSDOF 6
ENDMDL
MODEL 5
REMARK VINA RESULT:    -6.632     76.833     77.989
REMARK INTER + INTRA:          -7.198
REMARK INTER:                  -8.208
REMARK INTRA:                   1.010
REMARK UNBOUND:                 1.179
REMARK  6 active torsions:
REMARK  status: ('A' for Active; 'I' for Inactive)
REMARK    1  A    between atoms: O_1  and  C_12 
REMARK    2  A    between atoms: O_1  and  C_13 
REMARK    3  A    between atoms: O_2  and  C_9 
REMARK    4  A    between atoms: O_3  and  C_10 
REMARK    5  A    between atoms: O_4  and  C_11 
REMARK    6  A    between atoms: C_6  and  C_12 
ROOT
ATOM      1  C   UNL d   1     -43.615  32.930  19.789  0.00  0.00     0.044 A 
ATOM      2  C   UNL d   1     -43.634  33.011  18.793  0.00  0.00     0.057 A 
ATOM      3  C   UNL d   1     -42.811  32.545  20.244  0.00  0.00     0.057 A 
ATOM      4  C   UNL d   1     -42.028  32.241  19.702  0.00  0.00     0.102 A 
ATOM      5  C   UNL d   1     -42.851  32.707  18.251  0.00  0.00     0.102 A 
ATOM      6  C   UNL d   1     -42.048  32.322  18.705  0.00  0.00     0.132 A 
ENDROOT
BRANCH   1   7
ATOM      7  C   UNL d   1     -44.398  33.233  20.331  0.00  0.00     0.293 C 
ATOM      8  O   UNL d   1     -45.325  32.977  20.057  0.00  0.00    -0.259 OA
BRANCH   7   9
ATOM      9  O   UNL d   1     -44.255  33.793  21.147  0.00  0.00    -0.318 OA
BRANCH   9  10
ATOM     10  C   UNL d   1     -45.016  34.309  21.540  0.00  0.00     0.174 C 
ATOM     11  C   UNL d   1     -44.841  35.011  22.230  0.00  0.00     0.034 C 
ENDBRANCH   9  10
ENDBRANCH   7   9
ENDBRANCH   1   7
BRANCH   5  12
ATOM     12  O   UNL d   1     -42.871  32.788  17.254  0.00  0.00    -0.358 OA
ATOM     13  H   UNL d   1     -43.413  32.782  16.953  0.00  0.00     0.217 HD
ENDBRANCH   5  12
BRANCH   4  14
ATOM     14  O   UNL d   1     -41.224  31.856  20.156  0.00  0.00    -0.358 OA
ATOM     15  H   UNL d   1     -40.888  31.419  19.873  0.00  0.00     0.217 HD
ENDBRANCH   4  14
BRANCH   6  16
ATOM     16  O   UNL d   1     -41.264  32.018  18.163  0.00  0.00    -0.356 OA
ATOM     17  H   UNL d   1     -40.701  32.253  18.274  0.00  0.00     0.218 HD
ENDBRANCH   6  16
TORSDOF 6
ENDMDL
