MODEL 1
REMARK VINA RESULT:    -7.465      0.000      0.000
REMARK INTER + INTRA:          -8.482
REMARK INTER:                  -8.519
REMARK INTRA:                   0.038
REMARK UNBOUND:                 0.074
REMARK  4 active torsions:
REMARK  status: ('A' for Active; 'I' for Inactive)
REMARK    1  A    between atoms: O_1  and  C_13 
REMARK    2  A    between atoms: O_4  and  C_16 
REMARK    3  A    between atoms: O_5  and  C_18 
REMARK    4  A    between atoms: C_14  and  C_18 
ROOT
ATOM      1  O   UNL d   1     -15.385  10.480  12.941  0.00  0.00    -0.286 OA
ATOM      2  O   UNL d   1     -12.944   8.009  10.958  0.00  0.00    -0.287 OA
ATOM      3  C   UNL d   1     -13.739   8.474  12.425  0.00  0.00     0.032 A 
ATOM      4  C   UNL d   1     -14.350   9.092  12.920  0.00  0.00     0.062 A 
ATOM      5  C   UNL d   1     -14.590  10.015  11.474  0.00  0.00     0.062 A 
ATOM      6  C   UNL d   1     -13.979   9.397  10.979  0.00  0.00     0.032 A 
ATOM      7  C   UNL d   1     -14.775   9.862  12.445  0.00  0.00     0.199 A 
ATOM      8  C   UNL d   1     -13.554   8.626  11.454  0.00  0.00     0.194 A 
ATOM      9  C   UNL d   1     -13.289   7.667  12.906  0.00  0.00     0.026 A 
ATOM     10  C   UNL d   1     -14.552   8.945  13.931  0.00  0.00     0.081 A 
ATOM     11  C   UNL d   1     -13.477   7.502  13.917  0.00  0.00    -0.031 A 
ATOM     12  C   UNL d   1     -14.112   8.145  14.433  0.00  0.00     0.046 A 
ATOM     13  C   UNL d   1     -15.040  10.821  10.993  0.00  0.00     0.080 A 
ATOM     14  C   UNL d   1     -13.777   9.543   9.967  0.00  0.00     0.017 A 
ATOM     15  C   UNL d   1     -14.852  10.986   9.982  0.00  0.00     0.037 A 
ATOM     16  C   UNL d   1     -14.216  10.343   9.466  0.00  0.00     0.004 A 
ENDROOT
BRANCH  11  17
ATOM     17  C   UNL d   1     -13.049   6.730  14.388  0.00  0.00     0.203 C 
BRANCH  17  18
ATOM     18  O   UNL d   1     -12.193   6.346  14.043  0.00  0.00    -0.396 OA
ATOM     19  H   UNL d   1     -11.662   6.452  14.345  0.00  0.00     0.209 HD
ENDBRANCH  17  18
ENDBRANCH  11  17
BRANCH  10  20
ATOM     20  O   UNL d   1     -15.164   9.570  14.417  0.00  0.00    -0.360 OA
ATOM     21  H   UNL d   1     -15.508   9.361  14.889  0.00  0.00     0.217 HD
ENDBRANCH  10  20
BRANCH  13  22
ATOM     22  O   UNL d   1     -15.648  11.432  11.499  0.00  0.00    -0.360 OA
ATOM     23  H   UNL d   1     -15.885  11.252  12.043  0.00  0.00     0.217 HD
ENDBRANCH  13  22
TORSDOF 4
ENDMDL
MODEL 2
REMARK VINA RESULT:    -7.423     33.322     35.148
REMARK INTER + INTRA:          -8.434
REMARK INTER:                  -8.430
REMARK INTRA:                  -0.004
REMARK UNBOUND:                 0.074
REMARK  4 active torsions:
REMARK  status: ('A' for Active; 'I' for Inactive)
REMARK    1  A    between atoms: O_1  and  C_13 
REMARK    2  A    between atoms: O_4  and  C_16 
REMARK    3  A    between atoms: O_5  and  C_18 
REMARK    4  A    between atoms: C_14  and  C_18 
ROOT
ATOM      1  O   UNL d   1      16.689  14.930  30.609  0.00  0.00    -0.286 OA
ATOM      2  O   UNL d   1      15.232  11.575  28.992  0.00  0.00    -0.287 OA
ATOM      3  C   UNL d   1      15.482  13.287  28.923  0.00  0.00     0.032 A 
ATOM      4  C   UNL d   1      15.846  14.126  29.328  0.00  0.00     0.062 A 
ATOM      5  C   UNL d   1      16.439  13.218  30.678  0.00  0.00     0.062 A 
ATOM      6  C   UNL d   1      16.074  12.379  30.274  0.00  0.00     0.032 A 
ATOM      7  C   UNL d   1      16.325  14.091  30.205  0.00  0.00     0.199 A 
ATOM      8  C   UNL d   1      15.596  12.414  29.397  0.00  0.00     0.194 A 
ATOM      9  C   UNL d   1      14.982  13.307  28.010  0.00  0.00     0.026 A 
ATOM     10  C   UNL d   1      15.735  15.043  28.846  0.00  0.00     0.081 A 
ATOM     11  C   UNL d   1      14.859  14.213  27.511  0.00  0.00    -0.031 A 
ATOM     12  C   UNL d   1      15.238  15.086  27.932  0.00  0.00     0.046 A 
ATOM     13  C   UNL d   1      16.939  13.197  31.591  0.00  0.00     0.080 A 
ATOM     14  C   UNL d   1      16.185  11.461  30.755  0.00  0.00     0.017 A 
ATOM     15  C   UNL d   1      17.061  12.291  32.090  0.00  0.00     0.037 A 
ATOM     16  C   UNL d   1      16.682  11.418  31.669  0.00  0.00     0.004 A 
ENDROOT
BRANCH  11  17
ATOM     17  C   UNL d   1      14.380  14.243  26.633  0.00  0.00     0.203 C 
BRANCH  17  18
ATOM     18  O   UNL d   1      14.901  14.251  25.780  0.00  0.00    -0.396 OA
ATOM     19  H   UNL d   1      15.057  13.716  25.507  0.00  0.00     0.209 HD
ENDBRANCH  17  18
ENDBRANCH  11  17
BRANCH  10  20
ATOM     20  O   UNL d   1      16.103  15.875  29.260  0.00  0.00    -0.360 OA
ATOM     21  H   UNL d   1      16.713  15.926  29.363  0.00  0.00     0.217 HD
ENDBRANCH  10  20
BRANCH  13  22
ATOM     22  O   UNL d   1      17.299  14.042  31.986  0.00  0.00    -0.360 OA
ATOM     23  H   UNL d   1      17.863  14.048  32.245  0.00  0.00     0.217 HD
ENDBRANCH  13  22
TORSDOF 4
ENDMDL
MODEL 3
REMARK VINA RESULT:    -7.263     29.493     30.661
REMARK INTER + INTRA:          -8.251
REMARK INTER:                  -8.268
REMARK INTRA:                   0.017
REMARK UNBOUND:                 0.074
REMARK  4 active torsions:
REMARK  status: ('A' for Active; 'I' for Inactive)
REMARK    1  A    between atoms: O_1  and  C_13 
REMARK    2  A    between atoms: O_4  and  C_16 
REMARK    3  A    between atoms: O_5  and  C_18 
REMARK    4  A    between atoms: C_14  and  C_18 
ROOT
ATOM      1  O   UNL d   1      16.576   9.448   3.822  0.00  0.00    -0.286 OA
ATOM      2  O   UNL d   1      14.577  11.838   6.330  0.00  0.00    -0.287 OA
ATOM      3  C   UNL d   1      14.605  10.825   4.925  0.00  0.00     0.032 A 
ATOM      4  C   UNL d   1      15.105  10.228   4.298  0.00  0.00     0.062 A 
ATOM      5  C   UNL d   1      16.548  10.461   5.226  0.00  0.00     0.062 A 
ATOM      6  C   UNL d   1      16.049  11.059   5.853  0.00  0.00     0.032 A 
ATOM      7  C   UNL d   1      16.076  10.046   4.449  0.00  0.00     0.199 A 
ATOM      8  C   UNL d   1      15.077  11.241   5.703  0.00  0.00     0.194 A 
ATOM      9  C   UNL d   1      13.593  11.025   4.781  0.00  0.00     0.026 A 
ATOM     10  C   UNL d   1      14.626   9.788   3.484  0.00  0.00     0.081 A 
ATOM     11  C   UNL d   1      13.094  10.596   3.974  0.00  0.00    -0.031 A 
ATOM     12  C   UNL d   1      13.614   9.974   3.321  0.00  0.00     0.046 A 
ATOM     13  C   UNL d   1      17.560  10.262   5.370  0.00  0.00     0.080 A 
ATOM     14  C   UNL d   1      16.526  11.499   6.668  0.00  0.00     0.017 A 
ATOM     15  C   UNL d   1      18.059  10.691   6.178  0.00  0.00     0.037 A 
ATOM     16  C   UNL d   1      17.538  11.313   6.831  0.00  0.00     0.004 A 
ENDROOT
BRANCH  11  17
ATOM     17  C   UNL d   1      12.122  10.781   3.827  0.00  0.00     0.203 C 
BRANCH  17  18
ATOM     18  O   UNL d   1      11.486  10.750   4.598  0.00  0.00    -0.396 OA
ATOM     19  H   UNL d   1      11.255  11.277   4.830  0.00  0.00     0.209 HD
ENDBRANCH  17  18
ENDBRANCH  11  17
BRANCH  10  20
ATOM     20  O   UNL d   1      15.136   9.192   2.863  0.00  0.00    -0.360 OA
ATOM     21  H   UNL d   1      15.491   8.738   3.092  0.00  0.00     0.217 HD
ENDBRANCH  10  20
BRANCH  13  22
ATOM     22  O   UNL d   1      18.050   9.663   4.737  0.00  0.00    -0.360 OA
ATOM     23  H   UNL d   1      17.739   9.361   4.293  0.00  0.00     0.217 HD
ENDBRANCH  13  22
TORSDOF 4
ENDMDL
MODEL 4
REMARK VINA RESULT:    -7.223     20.427     22.903
REMARK INTER + INTRA:          -8.204
REMARK INTER:                  -8.209
REMARK INTRA:                   0.004
REMARK UNBOUND:                 0.074
REMARK  4 active torsions:
REMARK  status: ('A' for Active; 'I' for Inactive)
REMARK    1  A    between atoms: O_1  and  C_13 
REMARK    2  A    between atoms: O_4  and  C_16 
REMARK    3  A    between atoms: O_5  and  C_18 
REMARK    4  A    between atoms: C_14  and  C_18 
ROOT
ATOM      1  O   UNL d   1       0.189   6.550  27.993  0.00  0.00    -0.286 OA
ATOM      2  O   UNL d   1       3.356   4.130  27.661  0.00  0.00    -0.287 OA
ATOM      3  C   UNL d   1       2.591   5.510  28.375  0.00  0.00     0.032 A 
ATOM      4  C   UNL d   1       1.799   6.115  28.458  0.00  0.00     0.062 A 
ATOM      5  C   UNL d   1       0.954   5.170  27.279  0.00  0.00     0.062 A 
ATOM      6  C   UNL d   1       1.745   4.564  27.196  0.00  0.00     0.032 A 
ATOM      7  C   UNL d   1       0.981   5.945  27.910  0.00  0.00     0.199 A 
ATOM      8  C   UNL d   1       2.564   4.735  27.744  0.00  0.00     0.194 A 
ATOM      9  C   UNL d   1       3.452   5.674  28.939  0.00  0.00     0.026 A 
ATOM     10  C   UNL d   1       1.813   6.926  29.111  0.00  0.00     0.081 A 
ATOM     11  C   UNL d   1       3.487   6.480  29.598  0.00  0.00    -0.031 A 
ATOM     12  C   UNL d   1       2.663   7.110  29.685  0.00  0.00     0.046 A 
ATOM     13  C   UNL d   1       0.094   5.005  26.714  0.00  0.00     0.080 A 
ATOM     14  C   UNL d   1       1.732   3.753  26.543  0.00  0.00     0.017 A 
ATOM     15  C   UNL d   1       0.058   4.199  26.055  0.00  0.00     0.037 A 
ATOM     16  C   UNL d   1       0.883   3.569  25.969  0.00  0.00     0.004 A 
ENDROOT
BRANCH  11  17
ATOM     17  C   UNL d   1       4.308   6.647  30.145  0.00  0.00     0.203 C 
BRANCH  17  18
ATOM     18  O   UNL d   1       4.305   6.448  31.125  0.00  0.00    -0.396 OA
ATOM     19  H   UNL d   1       4.368   5.864  31.323  0.00  0.00     0.209 HD
ENDBRANCH  17  18
ENDBRANCH  11  17
BRANCH  10  20
ATOM     20  O   UNL d   1       1.016   7.525  29.185  0.00  0.00    -0.360 OA
ATOM     21  H   UNL d   1       0.982   7.940  29.645  0.00  0.00     0.217 HD
ENDBRANCH  10  20
BRANCH  13  22
ATOM     22  O   UNL d   1      -0.692   5.616  26.806  0.00  0.00    -0.360 OA
ATOM     23  H   UNL d   1      -1.267   5.393  26.741  0.00  0.00     0.217 HD
ENDBRANCH  13  22
TORSDOF 4
ENDMDL
MODEL 5
REMARK VINA RESULT:    -7.221     20.656     22.771
REMARK INTER + INTRA:          -8.202
REMARK INTER:                  -8.198
REMARK INTRA:                  -0.004
REMARK UNBOUND:                 0.074
REMARK  4 active torsions:
REMARK  status: ('A' for Active; 'I' for Inactive)
REMARK    1  A    between atoms: O_1  and  C_13 
REMARK    2  A    between atoms: O_4  and  C_16 
REMARK    3  A    between atoms: O_5  and  C_18 
REMARK    4  A    between atoms: C_14  and  C_18 
ROOT
ATOM      1  O   UNL d   1       3.270   4.028  27.294  0.00  0.00    -0.286 OA
ATOM      2  O   UNL d   1      -0.068   6.210  27.606  0.00  0.00    -0.287 OA
ATOM      3  C   UNL d   1       1.613   5.982  27.956  0.00  0.00     0.032 A 
ATOM      4  C   UNL d   1       2.447   5.436  27.878  0.00  0.00     0.062 A 
ATOM      5  C   UNL d   1       1.589   4.256  26.945  0.00  0.00     0.062 A 
ATOM      6  C   UNL d   1       0.754   4.802  27.023  0.00  0.00     0.032 A 
ATOM      7  C   UNL d   1       2.435   4.573  27.372  0.00  0.00     0.199 A 
ATOM      8  C   UNL d   1       0.766   5.664  27.528  0.00  0.00     0.194 A 
ATOM      9  C   UNL d   1       1.609   6.883  28.479  0.00  0.00     0.026 A 
ATOM     10  C   UNL d   1       3.336   5.754  28.318  0.00  0.00     0.081 A 
ATOM     11  C   UNL d   1       2.487   7.219  28.927  0.00  0.00    -0.031 A 
ATOM     12  C   UNL d   1       3.356   6.652  28.846  0.00  0.00     0.046 A 
ATOM     13  C   UNL d   1       1.591   3.356  26.422  0.00  0.00     0.080 A 
ATOM     14  C   UNL d   1      -0.135   4.484  26.583  0.00  0.00     0.017 A 
ATOM     15  C   UNL d   1       0.713   3.019  25.974  0.00  0.00     0.037 A 
ATOM     16  C   UNL d   1      -0.155   3.587  26.055  0.00  0.00     0.004 A 
ENDROOT
BRANCH  11  17
ATOM     17  C   UNL d   1       2.495   8.083  29.432  0.00  0.00     0.203 C 
BRANCH  17  18
ATOM     18  O   UNL d   1       1.938   8.184  30.256  0.00  0.00    -0.396 OA
ATOM     19  H   UNL d   1       2.061   7.841  30.758  0.00  0.00     0.209 HD
ENDBRANCH  17  18
ENDBRANCH  11  17
BRANCH  10  20
ATOM     20  O   UNL d   1       4.165   5.200  28.233  0.00  0.00    -0.360 OA
ATOM     21  H   UNL d   1       4.523   5.102  28.730  0.00  0.00     0.217 HD
ENDBRANCH  10  20
BRANCH  13  22
ATOM     22  O   UNL d   1       2.432   2.818  26.350  0.00  0.00    -0.360 OA
ATOM     23  H   UNL d   1       2.537   2.474  25.845  0.00  0.00     0.217 HD
ENDBRANCH  13  22
TORSDOF 4
ENDMDL
