MODEL 1
REMARK VINA RESULT:    -6.565      0.000      0.000
REMARK INTER + INTRA:          -7.313
REMARK INTER:                  -8.280
REMARK INTRA:                   0.966
REMARK UNBOUND:                 0.978
REMARK  6 active torsions:
REMARK  status: ('A' for Active; 'I' for Inactive)
REMARK    1  A    between atoms: O_1  and  C_8 
REMARK    2  A    between atoms: O_2  and  C_9 
REMARK    3  A    between atoms: O_3  and  C_13 
REMARK    4  A    between atoms: C_5  and  C_11 
REMARK    5  A    between atoms: C_11  and  C_12 
REMARK    6  A    between atoms: C_12  and  C_13 
ROOT
ATOM      1  C   UNL d   1      14.032  14.251  27.165  0.00  0.00    -0.033 A 
ATOM      2  C   UNL d   1      13.175  14.356  27.671  0.00  0.00     0.050 A 
ATOM      3  C   UNL d   1      14.023  14.224  26.166  0.00  0.00     0.014 A 
ATOM      4  C   UNL d   1      12.310  14.434  27.176  0.00  0.00     0.099 A 
ATOM      5  C   UNL d   1      12.300  14.408  26.177  0.00  0.00     0.098 A 
ATOM      6  C   UNL d   1      13.157  14.303  25.671  0.00  0.00     0.040 A 
ENDROOT
BRANCH   1   7
ATOM      7  C   UNL d   1      14.898  14.173  27.660  0.00  0.00     0.018 C 
BRANCH   7   8
ATOM      8  C   UNL d   1      15.216  14.927  28.233  0.00  0.00     0.082 C 
BRANCH   8   9
ATOM      9  C   UNL d   1      16.084  14.851  28.724  0.00  0.00     0.165 C 
ATOM     10  O   UNL d   1      16.108  14.441  29.636  0.00  0.00    -0.647 OA
BRANCH   9  11
ATOM     11  O   UNL d   1      16.927  15.185  28.303  0.00  0.00    -0.773 OA
ATOM     12  H   UNL d   1      16.928  15.363  27.709  0.00  0.00     0.167 HD
ENDBRANCH   9  11
ENDBRANCH   8   9
ENDBRANCH   7   8
ENDBRANCH   1   7
BRANCH   4  13
ATOM     13  O   UNL d   1      11.453  14.539  27.682  0.00  0.00    -0.358 OA
ATOM     14  H   UNL d   1      11.126  14.038  27.846  0.00  0.00     0.217 HD
ENDBRANCH   4  13
BRANCH   5  15
ATOM     15  O   UNL d   1      11.434  14.486  25.682  0.00  0.00    -0.358 OA
ATOM     16  H   UNL d   1      11.355  14.938  25.266  0.00  0.00     0.217 HD
ENDBRANCH   5  15
TORSDOF 6
ENDMDL
MODEL 2
REMARK VINA RESULT:    -6.246      0.854      4.119
REMARK INTER + INTRA:          -6.911
REMARK INTER:                  -7.951
REMARK INTRA:                   1.040
REMARK UNBOUND:                 0.978
REMARK  6 active torsions:
REMARK  status: ('A' for Active; 'I' for Inactive)
REMARK    1  A    between atoms: O_1  and  C_8 
REMARK    2  A    between atoms: O_2  and  C_9 
REMARK    3  A    between atoms: O_3  and  C_13 
REMARK    4  A    between atoms: C_5  and  C_11 
REMARK    5  A    between atoms: C_11  and  C_12 
REMARK    6  A    between atoms: C_12  and  C_13 
ROOT
ATOM      1  C   UNL d   1      14.197  14.235  27.354  0.00  0.00    -0.033 A 
ATOM      2  C   UNL d   1      14.968  14.863  27.454  0.00  0.00     0.050 A 
ATOM      3  C   UNL d   1      14.164  13.393  27.893  0.00  0.00     0.014 A 
ATOM      4  C   UNL d   1      15.707  14.650  28.093  0.00  0.00     0.099 A 
ATOM      5  C   UNL d   1      15.675  13.809  28.632  0.00  0.00     0.098 A 
ATOM      6  C   UNL d   1      14.903  13.180  28.532  0.00  0.00     0.040 A 
ENDROOT
BRANCH   1   7
ATOM      7  C   UNL d   1      13.458  14.448  26.715  0.00  0.00     0.018 C 
BRANCH   7   8
ATOM      8  C   UNL d   1      12.517  14.520  27.044  0.00  0.00     0.082 C 
BRANCH   8   9
ATOM      9  C   UNL d   1      11.783  14.770  26.412  0.00  0.00     0.165 C 
ATOM     10  O   UNL d   1      11.101  15.450  26.682  0.00  0.00    -0.647 OA
BRANCH   9  11
ATOM     11  O   UNL d   1      11.732  14.341  25.511  0.00  0.00    -0.773 OA
ATOM     12  H   UNL d   1      11.471  13.783  25.447  0.00  0.00     0.167 HD
ENDBRANCH   9  11
ENDBRANCH   8   9
ENDBRANCH   7   8
ENDBRANCH   1   7
BRANCH   4  13
ATOM     13  O   UNL d   1      16.478  15.279  28.193  0.00  0.00    -0.358 OA
ATOM     14  H   UNL d   1      16.919  15.301  27.757  0.00  0.00     0.217 HD
ENDBRANCH   4  13
BRANCH   5  15
ATOM     15  O   UNL d   1      16.414  13.596  29.272  0.00  0.00    -0.358 OA
ATOM     16  H   UNL d   1      16.334  13.689  29.879  0.00  0.00     0.217 HD
ENDBRANCH   5  15
TORSDOF 6
ENDMDL
MODEL 3
REMARK VINA RESULT:    -5.779      1.234      1.551
REMARK INTER + INTRA:          -6.321
REMARK INTER:                  -7.594
REMARK INTRA:                   1.273
REMARK UNBOUND:                 0.978
REMARK  6 active torsions:
REMARK  status: ('A' for Active; 'I' for Inactive)
REMARK    1  A    between atoms: O_1  and  C_8 
REMARK    2  A    between atoms: O_2  and  C_9 
REMARK    3  A    between atoms: O_3  and  C_13 
REMARK    4  A    between atoms: C_5  and  C_11 
REMARK    5  A    between atoms: C_11  and  C_12 
REMARK    6  A    between atoms: C_12  and  C_13 
ROOT
ATOM      1  C   UNL d   1      14.237  14.030  27.698  0.00  0.00    -0.033 A 
ATOM      2  C   UNL d   1      13.350  14.103  28.155  0.00  0.00     0.050 A 
ATOM      3  C   UNL d   1      14.317  14.245  26.725  0.00  0.00     0.014 A 
ATOM      4  C   UNL d   1      12.544  14.390  27.638  0.00  0.00     0.099 A 
ATOM      5  C   UNL d   1      12.624  14.605  26.665  0.00  0.00     0.098 A 
ATOM      6  C   UNL d   1      13.511  14.532  26.208  0.00  0.00     0.040 A 
ENDROOT
BRANCH   1   7
ATOM      7  C   UNL d   1      15.044  13.743  28.215  0.00  0.00     0.018 C 
BRANCH   7   8
ATOM      8  C   UNL d   1      15.067  12.841  28.644  0.00  0.00     0.082 C 
BRANCH   8   9
ATOM      9  C   UNL d   1      15.593  12.699  29.483  0.00  0.00     0.165 C 
ATOM     10  O   UNL d   1      16.565  12.934  29.508  0.00  0.00    -0.647 OA
BRANCH   9  11
ATOM     11  O   UNL d   1      15.148  12.323  30.295  0.00  0.00    -0.773 OA
ATOM     12  H   UNL d   1      14.536  12.223  30.295  0.00  0.00     0.167 HD
ENDBRANCH   9  11
ENDBRANCH   8   9
ENDBRANCH   7   8
ENDBRANCH   1   7
BRANCH   4  13
ATOM     13  O   UNL d   1      11.657  14.462  28.094  0.00  0.00    -0.358 OA
ATOM     14  H   UNL d   1      11.528  14.957  28.445  0.00  0.00     0.217 HD
ENDBRANCH   4  13
BRANCH   5  15
ATOM     15  O   UNL d   1      11.817  14.892  26.148  0.00  0.00    -0.358 OA
ATOM     16  H   UNL d   1      11.512  14.482  25.797  0.00  0.00     0.217 HD
ENDBRANCH   5  15
TORSDOF 6
ENDMDL
MODEL 4
REMARK VINA RESULT:    -5.637     13.359     15.280
REMARK INTER + INTRA:          -6.142
REMARK INTER:                  -7.172
REMARK INTRA:                   1.030
REMARK UNBOUND:                 0.978
REMARK  6 active torsions:
REMARK  status: ('A' for Active; 'I' for Inactive)
REMARK    1  A    between atoms: O_1  and  C_8 
REMARK    2  A    between atoms: O_2  and  C_9 
REMARK    3  A    between atoms: O_3  and  C_13 
REMARK    4  A    between atoms: C_5  and  C_11 
REMARK    5  A    between atoms: C_11  and  C_12 
REMARK    6  A    between atoms: C_12  and  C_13 
ROOT
ATOM      1  C   UNL d   1       1.500   6.334  28.453  0.00  0.00    -0.033 A 
ATOM      2  C   UNL d   1       1.315   7.062  29.113  0.00  0.00     0.050 A 
ATOM      3  C   UNL d   1       2.428   5.976  28.349  0.00  0.00     0.014 A 
ATOM      4  C   UNL d   1       2.059   7.431  29.670  0.00  0.00     0.099 A 
ATOM      5  C   UNL d   1       2.987   7.073  29.567  0.00  0.00     0.098 A 
ATOM      6  C   UNL d   1       3.171   6.346  28.906  0.00  0.00     0.040 A 
ENDROOT
BRANCH   1   7
ATOM      7  C   UNL d   1       0.756   5.964  27.895  0.00  0.00     0.018 C 
BRANCH   7   8
ATOM      8  C   UNL d   1       0.872   5.868  26.907  0.00  0.00     0.082 C 
BRANCH   8   9
ATOM      9  C   UNL d   1       0.077   5.705  26.323  0.00  0.00     0.165 C 
ATOM     10  O   UNL d   1      -0.358   4.804  26.311  0.00  0.00    -0.647 OA
BRANCH   9  11
ATOM     11  O   UNL d   1      -0.283   6.442  25.752  0.00  0.00    -0.773 OA
ATOM     12  H   UNL d   1      -0.885   6.453  25.603  0.00  0.00     0.167 HD
ENDBRANCH   9  11
ENDBRANCH   8   9
ENDBRANCH   7   8
ENDBRANCH   1   7
BRANCH   4  13
ATOM     13  O   UNL d   1       1.875   8.159  30.331  0.00  0.00    -0.358 OA
ATOM     14  H   UNL d   1       2.225   8.671  30.334  0.00  0.00     0.217 HD
ENDBRANCH   4  13
BRANCH   5  15
ATOM     15  O   UNL d   1       3.731   7.443  30.124  0.00  0.00    -0.358 OA
ATOM     16  H   UNL d   1       4.122   7.859  29.882  0.00  0.00     0.217 HD
ENDBRANCH   5  15
TORSDOF 6
ENDMDL
MODEL 5
REMARK VINA RESULT:    -5.296      2.573      4.492
REMARK INTER + INTRA:          -5.711
REMARK INTER:                  -6.846
REMARK INTRA:                   1.135
REMARK UNBOUND:                 0.978
REMARK  6 active torsions:
REMARK  status: ('A' for Active; 'I' for Inactive)
REMARK    1  A    between atoms: O_1  and  C_8 
REMARK    2  A    between atoms: O_2  and  C_9 
REMARK    3  A    between atoms: O_3  and  C_13 
REMARK    4  A    between atoms: C_5  and  C_11 
REMARK    5  A    between atoms: C_11  and  C_12 
REMARK    6  A    between atoms: C_12  and  C_13 
ROOT
ATOM      1  C   UNL d   1      15.510  13.299  29.055  0.00  0.00    -0.033 A 
ATOM      2  C   UNL d   1      15.218  12.343  29.010  0.00  0.00     0.050 A 
ATOM      3  C   UNL d   1      16.117  13.601  29.789  0.00  0.00     0.014 A 
ATOM      4  C   UNL d   1      15.533  11.691  29.699  0.00  0.00     0.099 A 
ATOM      5  C   UNL d   1      16.140  11.994  30.433  0.00  0.00     0.098 A 
ATOM      6  C   UNL d   1      16.433  12.949  30.478  0.00  0.00     0.040 A 
ENDROOT
BRANCH   1   7
ATOM      7  C   UNL d   1      15.195  13.951  28.366  0.00  0.00     0.018 C 
BRANCH   7   8
ATOM      8  C   UNL d   1      14.809  13.621  27.504  0.00  0.00     0.082 C 
BRANCH   8   9
ATOM      9  C   UNL d   1      14.723  14.241  26.725  0.00  0.00     0.165 C 
ATOM     10  O   UNL d   1      14.156  15.062  26.799  0.00  0.00    -0.647 OA
BRANCH   9  11
ATOM     11  O   UNL d   1      15.203  14.041  25.871  0.00  0.00    -0.773 OA
ATOM     12  H   UNL d   1      15.363  13.458  25.735  0.00  0.00     0.167 HD
ENDBRANCH   9  11
ENDBRANCH   8   9
ENDBRANCH   7   8
ENDBRANCH   1   7
BRANCH   4  13
ATOM     13  O   UNL d   1      15.241  10.736  29.654  0.00  0.00    -0.358 OA
ATOM     14  H   UNL d   1      14.749  10.578  29.310  0.00  0.00     0.217 HD
ENDBRANCH   4  13
BRANCH   5  15
ATOM     15  O   UNL d   1      16.456  11.341  31.122  0.00  0.00    -0.358 OA
ATOM     16  H   UNL d   1      16.742  10.820  30.947  0.00  0.00     0.217 HD
ENDBRANCH   5  15
TORSDOF 6
ENDMDL
