MODEL 1
REMARK VINA RESULT:    -6.003      0.000      0.000
REMARK INTER + INTRA:          -5.373
REMARK INTER:                  -7.482
REMARK INTRA:                   2.109
REMARK UNBOUND:                 1.859
REMARK  5 active torsions:
REMARK  status: ('A' for Active; 'I' for Inactive)
REMARK    1  A    between atoms: O_2  and  C_13 
REMARK    2  A    between atoms: O_3  and  C_19 
REMARK    3  A    between atoms: O_5  and  C_17 
REMARK    4  A    between atoms: O_6  and  C_21 
REMARK    5  A    between atoms: C_8  and  C_10 
ROOT
ATOM      1  O   UNL d   1      46.060  14.164   2.890  0.00  0.00    -0.309 OA
ATOM      2  O   UNL d   1      46.235  11.544   1.439  0.00  0.00    -0.287 OA
ATOM      3  C   UNL d   1      45.662  13.176   1.524  0.00  0.00     0.081 A 
ATOM      4  C   UNL d   1      46.575  13.405   3.288  0.00  0.00     0.090 A 
ATOM      5  C   UNL d   1      45.604  14.050   2.007  0.00  0.00     0.095 A 
ATOM      6  C   UNL d   1      46.177  12.417   1.922  0.00  0.00     0.190 A 
ATOM      7  C   UNL d   1      46.633  12.532   2.805  0.00  0.00     0.094 A 
ATOM      8  C   UNL d   1      45.192  13.043   0.604  0.00  0.00     0.085 A 
ATOM      9  C   UNL d   1      45.071  14.850   1.605  0.00  0.00     0.075 A 
ATOM     10  C   UNL d   1      44.594  14.738   0.686  0.00  0.00     0.071 A 
ATOM     11  C   UNL d   1      44.654  13.829   0.182  0.00  0.00     0.074 A 
ENDROOT
BRANCH   4  12
ATOM     12  C   UNL d   1      47.031  13.519   4.171  0.00  0.00     0.001 A 
ATOM     13  C   UNL d   1      47.920  13.091   4.334  0.00  0.00     0.054 A 
ATOM     14  C   UNL d   1      48.376  13.205   5.216  0.00  0.00     0.102 A 
ATOM     15  C   UNL d   1      47.943  13.748   5.936  0.00  0.00     0.099 A 
ATOM     16  C   UNL d   1      47.055  14.177   5.773  0.00  0.00     0.040 A 
ATOM     17  C   UNL d   1      46.598  14.062   4.891  0.00  0.00     0.017 A 
BRANCH  14  18
ATOM     18  O   UNL d   1      49.265  12.777   5.379  0.00  0.00    -0.353 OA
ATOM     19  C   UNL d   1      49.757  12.343   4.623  0.00  0.00     0.210 C 
ENDBRANCH  14  18
BRANCH  15  20
ATOM     20  O   UNL d   1      48.400  13.863   6.818  0.00  0.00    -0.358 OA
ATOM     21  H   UNL d   1      48.277  13.472   7.284  0.00  0.00     0.217 HD
ENDBRANCH  15  20
ENDBRANCH   4  12
BRANCH   8  22
ATOM     22  O   UNL d   1      45.257  12.165   0.129  0.00  0.00    -0.360 OA
ATOM     23  H   UNL d   1      44.766  11.788   0.106  0.00  0.00     0.217 HD
ENDBRANCH   8  22
BRANCH  10  24
ATOM     24  O   UNL d   1      44.080  15.500   0.290  0.00  0.00    -0.361 OA
ATOM     25  H   UNL d   1      43.461  15.504   0.320  0.00  0.00     0.217 HD
ENDBRANCH  10  24
TORSDOF 5
ENDMDL
MODEL 2
REMARK VINA RESULT:    -5.934     21.059     23.071
REMARK INTER + INTRA:          -5.289
REMARK INTER:                  -7.125
REMARK INTRA:                   1.835
REMARK UNBOUND:                 1.859
REMARK  5 active torsions:
REMARK  status: ('A' for Active; 'I' for Inactive)
REMARK    1  A    between atoms: O_2  and  C_13 
REMARK    2  A    between atoms: O_3  and  C_19 
REMARK    3  A    between atoms: O_5  and  C_17 
REMARK    4  A    between atoms: O_6  and  C_21 
REMARK    5  A    between atoms: C_8  and  C_10 
ROOT
ATOM      1  O   UNL d   1      47.967  33.742  12.758  0.00  0.00    -0.309 OA
ATOM      2  O   UNL d   1      45.703  31.778  12.885  0.00  0.00    -0.287 OA
ATOM      3  C   UNL d   1      47.331  32.218  13.281  0.00  0.00     0.081 A 
ATOM      4  C   UNL d   1      47.094  33.957  12.320  0.00  0.00     0.090 A 
ATOM      5  C   UNL d   1      48.086  32.873  13.238  0.00  0.00     0.095 A 
ATOM      6  C   UNL d   1      46.458  32.433  12.843  0.00  0.00     0.190 A 
ATOM      7  C   UNL d   1      46.340  33.302  12.363  0.00  0.00     0.094 A 
ATOM      8  C   UNL d   1      47.440  31.310  13.777  0.00  0.00     0.085 A 
ATOM      9  C   UNL d   1      49.001  32.664  13.689  0.00  0.00     0.075 A 
ATOM     10  C   UNL d   1      49.132  31.761  14.191  0.00  0.00     0.071 A 
ATOM     11  C   UNL d   1      48.346  31.079  14.235  0.00  0.00     0.074 A 
ENDROOT
BRANCH   4  12
ATOM     12  C   UNL d   1      46.976  34.826  11.840  0.00  0.00     0.001 A 
ATOM     13  C   UNL d   1      46.729  35.650  12.351  0.00  0.00     0.054 A 
ATOM     14  C   UNL d   1      46.611  36.519  11.871  0.00  0.00     0.102 A 
ATOM     15  C   UNL d   1      46.739  36.564  10.880  0.00  0.00     0.099 A 
ATOM     16  C   UNL d   1      46.986  35.741  10.369  0.00  0.00     0.040 A 
ATOM     17  C   UNL d   1      47.104  34.871  10.849  0.00  0.00     0.017 A 
BRANCH  14  18
ATOM     18  O   UNL d   1      46.365  37.343  12.381  0.00  0.00    -0.353 OA
ATOM     19  C   UNL d   1      46.468  37.364  13.376  0.00  0.00     0.210 C 
ENDBRANCH  14  18
BRANCH  15  20
ATOM     20  O   UNL d   1      46.621  37.433  10.400  0.00  0.00    -0.358 OA
ATOM     21  H   UNL d   1      46.200  37.843  10.599  0.00  0.00     0.217 HD
ENDBRANCH  15  20
ENDBRANCH   4  12
BRANCH   8  22
ATOM     22  O   UNL d   1      46.678  30.662  13.813  0.00  0.00    -0.360 OA
ATOM     23  H   UNL d   1      46.359  30.589  14.339  0.00  0.00     0.217 HD
ENDBRANCH   8  22
BRANCH  10  24
ATOM     24  O   UNL d   1      50.007  31.550  14.628  0.00  0.00    -0.361 OA
ATOM     25  H   UNL d   1      50.312  31.992  14.938  0.00  0.00     0.217 HD
ENDBRANCH  10  24
TORSDOF 5
ENDMDL
MODEL 3
REMARK VINA RESULT:    -5.847      4.675      7.599
REMARK INTER + INTRA:          -5.184
REMARK INTER:                  -7.122
REMARK INTRA:                   1.938
REMARK UNBOUND:                 1.859
REMARK  5 active torsions:
REMARK  status: ('A' for Active; 'I' for Inactive)
REMARK    1  A    between atoms: O_2  and  C_13 
REMARK    2  A    between atoms: O_3  and  C_19 
REMARK    3  A    between atoms: O_5  and  C_17 
REMARK    4  A    between atoms: O_6  and  C_21 
REMARK    5  A    between atoms: C_8  and  C_10 
ROOT
ATOM      1  O   UNL d   1      43.433  17.766  -1.971  0.00  0.00    -0.309 OA
ATOM      2  O   UNL d   1      44.294  20.627  -1.704  0.00  0.00    -0.287 OA
ATOM      3  C   UNL d   1      44.075  19.211  -2.677  0.00  0.00     0.081 A 
ATOM      4  C   UNL d   1      43.365  18.228  -1.086  0.00  0.00     0.090 A 
ATOM      5  C   UNL d   1      43.788  18.257  -2.766  0.00  0.00     0.095 A 
ATOM      6  C   UNL d   1      44.007  19.673  -1.793  0.00  0.00     0.190 A 
ATOM      7  C   UNL d   1      43.652  19.182  -0.998  0.00  0.00     0.094 A 
ATOM      8  C   UNL d   1      44.447  19.735  -3.496  0.00  0.00     0.085 A 
ATOM      9  C   UNL d   1      43.853  17.762  -3.680  0.00  0.00     0.075 A 
ATOM     10  C   UNL d   1      44.222  18.267  -4.513  0.00  0.00     0.071 A 
ATOM     11  C   UNL d   1      44.521  19.260  -4.420  0.00  0.00     0.074 A 
ENDROOT
BRANCH   4  12
ATOM     12  C   UNL d   1      43.010  17.737  -0.291  0.00  0.00     0.001 A 
ATOM     13  C   UNL d   1      43.463  16.903   0.024  0.00  0.00     0.054 A 
ATOM     14  C   UNL d   1      43.108  16.411   0.819  0.00  0.00     0.102 A 
ATOM     15  C   UNL d   1      42.301  16.754   1.299  0.00  0.00     0.099 A 
ATOM     16  C   UNL d   1      41.848  17.588   0.984  0.00  0.00     0.040 A 
ATOM     17  C   UNL d   1      42.203  18.079   0.189  0.00  0.00     0.017 A 
BRANCH  14  18
ATOM     18  O   UNL d   1      43.561  15.577   1.135  0.00  0.00    -0.353 OA
ATOM     19  C   UNL d   1      44.480  15.354   0.811  0.00  0.00     0.210 C 
ENDBRANCH  14  18
BRANCH  15  20
ATOM     20  O   UNL d   1      41.946  16.262   2.095  0.00  0.00    -0.358 OA
ATOM     21  H   UNL d   1      41.585  15.764   2.016  0.00  0.00     0.217 HD
ENDBRANCH  15  20
ENDBRANCH   4  12
BRANCH   8  22
ATOM     22  O   UNL d   1      44.731  20.689  -3.396  0.00  0.00    -0.360 OA
ATOM     23  H   UNL d   1      44.569  21.107  -3.824  0.00  0.00     0.217 HD
ENDBRANCH   8  22
BRANCH  10  24
ATOM     24  O   UNL d   1      44.288  17.801  -5.395  0.00  0.00    -0.361 OA
ATOM     25  H   UNL d   1      44.414  17.195  -5.416  0.00  0.00     0.217 HD
ENDBRANCH  10  24
TORSDOF 5
ENDMDL
MODEL 4
REMARK VINA RESULT:    -5.839      1.095      5.298
REMARK INTER + INTRA:          -5.175
REMARK INTER:                  -7.432
REMARK INTRA:                   2.257
REMARK UNBOUND:                 1.859
REMARK  5 active torsions:
REMARK  status: ('A' for Active; 'I' for Inactive)
REMARK    1  A    between atoms: O_2  and  C_13 
REMARK    2  A    between atoms: O_3  and  C_19 
REMARK    3  A    between atoms: O_5  and  C_17 
REMARK    4  A    between atoms: O_6  and  C_21 
REMARK    5  A    between atoms: C_8  and  C_10 
ROOT
ATOM      1  O   UNL d   1      47.382  12.675   3.297  0.00  0.00    -0.309 OA
ATOM      2  O   UNL d   1      47.097  14.747   5.448  0.00  0.00    -0.287 OA
ATOM      3  C   UNL d   1      47.871  13.328   4.825  0.00  0.00     0.081 A 
ATOM      4  C   UNL d   1      46.703  13.404   3.203  0.00  0.00     0.090 A 
ATOM      5  C   UNL d   1      47.966  12.638   4.107  0.00  0.00     0.095 A 
ATOM      6  C   UNL d   1      47.192  14.056   4.731  0.00  0.00     0.190 A 
ATOM      7  C   UNL d   1      46.608  14.094   3.920  0.00  0.00     0.094 A 
ATOM      8  C   UNL d   1      48.473  13.302   5.674  0.00  0.00     0.085 A 
ATOM      9  C   UNL d   1      48.669  11.873   4.191  0.00  0.00     0.075 A 
ATOM     10  C   UNL d   1      49.281  11.828   5.032  0.00  0.00     0.071 A 
ATOM     11  C   UNL d   1      49.182  12.546   5.779  0.00  0.00     0.074 A 
ENDROOT
BRANCH   4  12
ATOM     12  C   UNL d   1      46.119  13.441   2.392  0.00  0.00     0.001 A 
ATOM     13  C   UNL d   1      46.027  12.637   1.805  0.00  0.00     0.054 A 
ATOM     14  C   UNL d   1      45.443  12.675   0.994  0.00  0.00     0.102 A 
ATOM     15  C   UNL d   1      44.951  13.516   0.770  0.00  0.00     0.099 A 
ATOM     16  C   UNL d   1      45.044  14.320   1.358  0.00  0.00     0.040 A 
ATOM     17  C   UNL d   1      45.628  14.283   2.169  0.00  0.00     0.017 A 
BRANCH  14  18
ATOM     18  O   UNL d   1      45.350  11.871   0.406  0.00  0.00    -0.353 OA
ATOM     19  C   UNL d   1      46.120  11.243   0.294  0.00  0.00     0.210 C 
ENDBRANCH  14  18
BRANCH  15  20
ATOM     20  O   UNL d   1      44.367  13.554  -0.040  0.00  0.00    -0.358 OA
ATOM     21  H   UNL d   1      44.620  13.636  -0.601  0.00  0.00     0.217 HD
ENDBRANCH  15  20
ENDBRANCH   4  12
BRANCH   8  22
ATOM     22  O   UNL d   1      48.369  13.997   6.385  0.00  0.00    -0.360 OA
ATOM     23  H   UNL d   1      48.570  14.575   6.285  0.00  0.00     0.217 HD
ENDBRANCH   8  22
BRANCH  10  24
ATOM     24  O   UNL d   1      49.959  11.098   5.122  0.00  0.00    -0.361 OA
ATOM     25  H   UNL d   1      50.512  11.218   5.374  0.00  0.00     0.217 HD
ENDBRANCH  10  24
TORSDOF 5
ENDMDL
MODEL 5
REMARK VINA RESULT:    -5.839      2.483      5.283
REMARK INTER + INTRA:          -5.174
REMARK INTER:                  -7.103
REMARK INTRA:                   1.928
REMARK UNBOUND:                 1.859
REMARK  5 active torsions:
REMARK  status: ('A' for Active; 'I' for Inactive)
REMARK    1  A    between atoms: O_2  and  C_13 
REMARK    2  A    between atoms: O_3  and  C_19 
REMARK    3  A    between atoms: O_5  and  C_17 
REMARK    4  A    between atoms: O_6  and  C_21 
REMARK    5  A    between atoms: C_8  and  C_10 
ROOT
ATOM      1  O   UNL d   1      47.484  11.881   3.154  0.00  0.00    -0.309 OA
ATOM      2  O   UNL d   1      49.963  11.503   4.801  0.00  0.00    -0.287 OA
ATOM      3  C   UNL d   1      48.520  12.392   4.444  0.00  0.00     0.081 A 
ATOM      4  C   UNL d   1      48.101  11.118   2.961  0.00  0.00     0.090 A 
ATOM      5  C   UNL d   1      47.694  12.518   3.895  0.00  0.00     0.095 A 
ATOM      6  C   UNL d   1      49.137  11.629   4.252  0.00  0.00     0.190 A 
ATOM      7  C   UNL d   1      48.927  10.992   3.510  0.00  0.00     0.094 A 
ATOM      8  C   UNL d   1      48.752  13.048   5.220  0.00  0.00     0.085 A 
ATOM      9  C   UNL d   1      47.042  13.309   4.084  0.00  0.00     0.075 A 
ATOM     10  C   UNL d   1      47.254  13.977   4.855  0.00  0.00     0.071 A 
ATOM     11  C   UNL d   1      48.114  13.845   5.426  0.00  0.00     0.074 A 
ENDROOT
BRANCH   4  12
ATOM     12  C   UNL d   1      47.891  10.480   2.220  0.00  0.00     0.001 A 
ATOM     13  C   UNL d   1      47.891  10.799   1.272  0.00  0.00     0.054 A 
ATOM     14  C   UNL d   1      47.681  10.161   0.530  0.00  0.00     0.102 A 
ATOM     15  C   UNL d   1      47.471   9.206   0.737  0.00  0.00     0.099 A 
ATOM     16  C   UNL d   1      47.472   8.887   1.685  0.00  0.00     0.040 A 
ATOM     17  C   UNL d   1      47.681   9.525   2.426  0.00  0.00     0.017 A 
BRANCH  14  18
ATOM     18  O   UNL d   1      47.681  10.480  -0.418  0.00  0.00    -0.353 OA
ATOM     19  C   UNL d   1      47.426  11.424  -0.628  0.00  0.00     0.210 C 
ENDBRANCH  14  18
BRANCH  15  20
ATOM     20  O   UNL d   1      47.262   8.568  -0.005  0.00  0.00    -0.358 OA
ATOM     21  H   UNL d   1      47.701   8.187  -0.219  0.00  0.00     0.217 HD
ENDBRANCH  15  20
ENDBRANCH   4  12
BRANCH   8  22
ATOM     22  O   UNL d   1      49.581  12.912   5.762  0.00  0.00    -0.360 OA
ATOM     23  H   UNL d   1      50.136  13.026   5.512  0.00  0.00     0.217 HD
ENDBRANCH   8  22
BRANCH  10  24
ATOM     24  O   UNL d   1      46.635  14.739   5.044  0.00  0.00    -0.361 OA
ATOM     25  H   UNL d   1      46.098  14.636   5.336  0.00  0.00     0.217 HD
ENDBRANCH  10  24
TORSDOF 5
ENDMDL
