MODEL 1
REMARK VINA RESULT:    -6.091      0.000      0.000
REMARK INTER + INTRA:          -2.853
REMARK INTER:                  -8.290
REMARK INTRA:                   5.437
REMARK UNBOUND:                 5.019
REMARK  6 active torsions:
REMARK  status: ('A' for Active; 'I' for Inactive)
REMARK    1  A    between atoms: O_2  and  C_15 
REMARK    2  A    between atoms: O_3  and  C_17 
REMARK    3  A    between atoms: O_4  and  C_11 
REMARK    4  A    between atoms: O_6  and  C_22 
REMARK    5  A    between atoms: O_7  and  C_20 
REMARK    6  A    between atoms: C_10  and  C_13 
ROOT
ATOM      1  O   UNL d   1      47.304  12.705   3.236  0.00  0.00    -0.309 OA
ATOM      2  O   UNL d   1      47.262  14.783   5.493  0.00  0.00    -0.287 OA
ATOM      3  C   UNL d   1      47.919  13.297   4.793  0.00  0.00     0.084 A 
ATOM      4  C   UNL d   1      47.935  12.618   4.059  0.00  0.00     0.096 A 
ATOM      5  C   UNL d   1      46.646  13.511   3.176  0.00  0.00     0.090 A 
ATOM      6  C   UNL d   1      48.531  13.200   5.578  0.00  0.00     0.119 A 
ATOM      7  C   UNL d   1      47.270  14.110   4.754  0.00  0.00     0.190 A 
ATOM      8  C   UNL d   1      48.564  11.842   4.110  0.00  0.00     0.078 A 
ATOM      9  C   UNL d   1      49.160  12.425   5.629  0.00  0.00     0.136 A 
ATOM     10  C   UNL d   1      46.629  14.218   3.940  0.00  0.00     0.094 A 
ATOM     11  C   UNL d   1      49.176  11.745   4.895  0.00  0.00     0.107 A 
ENDROOT
BRANCH   5  12
ATOM     12  C   UNL d   1      46.035  13.604   2.390  0.00  0.00     0.001 A 
ATOM     13  C   UNL d   1      45.585  14.478   2.208  0.00  0.00     0.053 A 
ATOM     14  C   UNL d   1      44.974  14.573   1.422  0.00  0.00     0.099 A 
ATOM     15  C   UNL d   1      44.813  13.792   0.818  0.00  0.00     0.101 A 
ATOM     16  C   UNL d   1      45.263  12.918   0.999  0.00  0.00     0.040 A 
ATOM     17  C   UNL d   1      45.874  12.824   1.785  0.00  0.00     0.017 A 
BRANCH  14  18
ATOM     18  O   UNL d   1      44.523  15.447   1.240  0.00  0.00    -0.358 OA
ATOM     19  H   UNL d   1      43.970  15.459   0.961  0.00  0.00     0.217 HD
ENDBRANCH  14  18
BRANCH  15  20
ATOM     20  O   UNL d   1      44.202  13.886   0.032  0.00  0.00    -0.353 OA
ATOM     21  C   UNL d   1      44.344  13.323  -0.782  0.00  0.00     0.210 C 
ENDBRANCH  15  20
ENDBRANCH   5  12
BRANCH   6  22
ATOM     22  O   UNL d   1      48.515  13.880   6.312  0.00  0.00    -0.357 OA
ATOM     23  H   UNL d   1      48.107  14.347   6.293  0.00  0.00     0.218 HD
ENDBRANCH   6  22
BRANCH  11  24
ATOM     24  O   UNL d   1      49.805  10.969   4.946  0.00  0.00    -0.353 OA
ATOM     25  C   UNL d   1      49.805  10.277   4.224  0.00  0.00     0.210 C 
ENDBRANCH  11  24
BRANCH   9  26
ATOM     26  O   UNL d   1      49.772  12.328   6.413  0.00  0.00    -0.351 OA
ATOM     27  C   UNL d   1      49.417  11.994   7.287  0.00  0.00     0.210 C 
ENDBRANCH   9  26
TORSDOF 6
ENDMDL
MODEL 2
REMARK VINA RESULT:    -5.961      1.371      6.142
REMARK INTER + INTRA:          -2.685
REMARK INTER:                  -8.144
REMARK INTRA:                   5.459
REMARK UNBOUND:                 5.019
REMARK  6 active torsions:
REMARK  status: ('A' for Active; 'I' for Inactive)
REMARK    1  A    between atoms: O_2  and  C_15 
REMARK    2  A    between atoms: O_3  and  C_17 
REMARK    3  A    between atoms: O_4  and  C_11 
REMARK    4  A    between atoms: O_6  and  C_22 
REMARK    5  A    between atoms: O_7  and  C_20 
REMARK    6  A    between atoms: C_10  and  C_13 
ROOT
ATOM      1  O   UNL d   1      45.973  14.172   2.662  0.00  0.00    -0.309 OA
ATOM      2  O   UNL d   1      46.013  11.485   1.180  0.00  0.00    -0.287 OA
ATOM      3  C   UNL d   1      45.485  13.171   1.278  0.00  0.00     0.084 A 
ATOM      4  C   UNL d   1      45.470  14.048   1.758  0.00  0.00     0.096 A 
ATOM      5  C   UNL d   1      46.499  13.372   3.071  0.00  0.00     0.090 A 
ATOM      6  C   UNL d   1      44.998  13.067   0.412  0.00  0.00     0.119 A 
ATOM      7  C   UNL d   1      46.005  12.358   1.669  0.00  0.00     0.190 A 
ATOM      8  C   UNL d   1      44.967  14.821   1.372  0.00  0.00     0.078 A 
ATOM      9  C   UNL d   1      44.495  13.840   0.025  0.00  0.00     0.136 A 
ATOM     10  C   UNL d   1      46.515  12.458   2.571  0.00  0.00     0.094 A 
ATOM     11  C   UNL d   1      44.480  14.717   0.505  0.00  0.00     0.107 A 
ENDROOT
BRANCH   5  12
ATOM     12  C   UNL d   1      46.986  13.479   3.938  0.00  0.00     0.001 A 
ATOM     13  C   UNL d   1      46.947  14.350   4.428  0.00  0.00     0.053 A 
ATOM     14  C   UNL d   1      47.434  14.458   5.295  0.00  0.00     0.099 A 
ATOM     15  C   UNL d   1      47.959  13.695   5.672  0.00  0.00     0.101 A 
ATOM     16  C   UNL d   1      47.997  12.824   5.182  0.00  0.00     0.040 A 
ATOM     17  C   UNL d   1      47.511  12.717   4.315  0.00  0.00     0.017 A 
BRANCH  14  18
ATOM     18  O   UNL d   1      47.396  15.329   5.786  0.00  0.00    -0.358 OA
ATOM     19  H   UNL d   1      47.480  15.861   5.480  0.00  0.00     0.217 HD
ENDBRANCH  14  18
BRANCH  15  20
ATOM     20  O   UNL d   1      48.445  13.803   6.539  0.00  0.00    -0.353 OA
ATOM     21  C   UNL d   1      48.896  13.016   6.960  0.00  0.00     0.210 C 
ENDBRANCH  15  20
ENDBRANCH   5  12
BRANCH   6  22
ATOM     22  O   UNL d   1      45.013  12.190  -0.069  0.00  0.00    -0.357 OA
ATOM     23  H   UNL d   1      44.751  11.691   0.189  0.00  0.00     0.218 HD
ENDBRANCH   6  22
BRANCH  11  24
ATOM     24  O   UNL d   1      43.977  15.490   0.118  0.00  0.00    -0.353 OA
ATOM     25  C   UNL d   1      43.756  16.280   0.690  0.00  0.00     0.210 C 
ENDBRANCH  11  24
BRANCH   9  26
ATOM     26  O   UNL d   1      44.007  13.736  -0.842  0.00  0.00    -0.351 OA
ATOM     27  C   UNL d   1      44.517  13.696  -1.701  0.00  0.00     0.210 C 
ENDBRANCH   9  26
TORSDOF 6
ENDMDL
MODEL 3
REMARK VINA RESULT:    -5.861      1.559      2.856
REMARK INTER + INTRA:          -2.555
REMARK INTER:                  -7.671
REMARK INTRA:                   5.117
REMARK UNBOUND:                 5.019
REMARK  6 active torsions:
REMARK  status: ('A' for Active; 'I' for Inactive)
REMARK    1  A    between atoms: O_2  and  C_15 
REMARK    2  A    between atoms: O_3  and  C_17 
REMARK    3  A    between atoms: O_4  and  C_11 
REMARK    4  A    between atoms: O_6  and  C_22 
REMARK    5  A    between atoms: O_7  and  C_20 
REMARK    6  A    between atoms: C_10  and  C_13 
ROOT
ATOM      1  O   UNL d   1      46.982  13.265   5.335  0.00  0.00    -0.309 OA
ATOM      2  O   UNL d   1      49.937  12.470   5.106  0.00  0.00    -0.287 OA
ATOM      3  C   UNL d   1      48.540  12.898   6.104  0.00  0.00     0.084 A 
ATOM      4  C   UNL d   1      47.578  13.158   6.183  0.00  0.00     0.096 A 
ATOM      5  C   UNL d   1      47.394  13.100   4.393  0.00  0.00     0.090 A 
ATOM      6  C   UNL d   1      49.100  12.799   6.927  0.00  0.00     0.119 A 
ATOM      7  C   UNL d   1      48.973  12.729   5.173  0.00  0.00     0.190 A 
ATOM      8  C   UNL d   1      47.175  13.317   7.084  0.00  0.00     0.078 A 
ATOM      9  C   UNL d   1      48.697  12.959   7.828  0.00  0.00     0.136 A 
ATOM     10  C   UNL d   1      48.397  12.830   4.311  0.00  0.00     0.094 A 
ATOM     11  C   UNL d   1      47.734  13.218   7.907  0.00  0.00     0.107 A 
ENDROOT
BRANCH   5  12
ATOM     12  C   UNL d   1      46.832  13.201   3.573  0.00  0.00     0.001 A 
ATOM     13  C   UNL d   1      46.750  12.441   2.927  0.00  0.00     0.053 A 
ATOM     14  C   UNL d   1      46.188  12.541   2.106  0.00  0.00     0.099 A 
ATOM     15  C   UNL d   1      45.707  13.401   1.931  0.00  0.00     0.101 A 
ATOM     16  C   UNL d   1      45.789  14.160   2.577  0.00  0.00     0.040 A 
ATOM     17  C   UNL d   1      46.351  14.060   3.397  0.00  0.00     0.017 A 
BRANCH  14  18
ATOM     18  O   UNL d   1      46.105  11.782   1.460  0.00  0.00    -0.358 OA
ATOM     19  H   UNL d   1      46.322  11.841   0.883  0.00  0.00     0.217 HD
ENDBRANCH  14  18
BRANCH  15  20
ATOM     20  O   UNL d   1      45.145  13.501   1.111  0.00  0.00    -0.353 OA
ATOM     21  C   UNL d   1      44.725  14.383   0.896  0.00  0.00     0.210 C 
ENDBRANCH  15  20
ENDBRANCH   5  12
BRANCH   6  22
ATOM     22  O   UNL d   1      50.062  12.540   6.849  0.00  0.00    -0.357 OA
ATOM     23  H   UNL d   1      50.500  12.978   6.822  0.00  0.00     0.218 HD
ENDBRANCH   6  22
BRANCH  11  24
ATOM     24  O   UNL d   1      47.331  13.378   8.808  0.00  0.00    -0.353 OA
ATOM     25  C   UNL d   1      46.452  13.847   8.886  0.00  0.00     0.210 C 
ENDBRANCH  11  24
BRANCH   9  26
ATOM     26  O   UNL d   1      49.257  12.859   8.651  0.00  0.00    -0.351 OA
ATOM     27  C   UNL d   1      49.453  11.949   9.015  0.00  0.00     0.210 C 
ENDBRANCH   9  26
TORSDOF 6
ENDMDL
MODEL 4
REMARK VINA RESULT:    -5.857      2.475      3.418
REMARK INTER + INTRA:          -2.549
REMARK INTER:                  -7.565
REMARK INTRA:                   5.016
REMARK UNBOUND:                 5.019
REMARK  6 active torsions:
REMARK  status: ('A' for Active; 'I' for Inactive)
REMARK    1  A    between atoms: O_2  and  C_15 
REMARK    2  A    between atoms: O_3  and  C_17 
REMARK    3  A    between atoms: O_4  and  C_11 
REMARK    4  A    between atoms: O_6  and  C_22 
REMARK    5  A    between atoms: O_7  and  C_20 
REMARK    6  A    between atoms: C_10  and  C_13 
ROOT
ATOM      1  O   UNL d   1      47.789  11.686   3.334  0.00  0.00    -0.309 OA
ATOM      2  O   UNL d   1      45.925  14.098   2.984  0.00  0.00    -0.287 OA
ATOM      3  C   UNL d   1      47.171  13.249   3.909  0.00  0.00     0.084 A 
ATOM      4  C   UNL d   1      47.780  12.464   4.027  0.00  0.00     0.096 A 
ATOM      5  C   UNL d   1      47.155  11.726   2.509  0.00  0.00     0.090 A 
ATOM      6  C   UNL d   1      47.173  13.989   4.582  0.00  0.00     0.119 A 
ATOM      7  C   UNL d   1      46.529  13.309   3.091  0.00  0.00     0.190 A 
ATOM      8  C   UNL d   1      48.391  12.420   4.817  0.00  0.00     0.078 A 
ATOM      9  C   UNL d   1      47.784  13.944   5.372  0.00  0.00     0.136 A 
ATOM     10  C   UNL d   1      46.521  12.543   2.386  0.00  0.00     0.094 A 
ATOM     11  C   UNL d   1      48.393  13.159   5.490  0.00  0.00     0.107 A 
ENDROOT
BRANCH   5  12
ATOM     12  C   UNL d   1      47.156  10.984   1.838  0.00  0.00     0.001 A 
ATOM     13  C   UNL d   1      47.653  11.090   0.977  0.00  0.00     0.053 A 
ATOM     14  C   UNL d   1      47.654  10.349   0.305  0.00  0.00     0.099 A 
ATOM     15  C   UNL d   1      47.157   9.502   0.495  0.00  0.00     0.101 A 
ATOM     16  C   UNL d   1      46.659   9.396   1.357  0.00  0.00     0.040 A 
ATOM     17  C   UNL d   1      46.659  10.137   2.027  0.00  0.00     0.017 A 
BRANCH  14  18
ATOM     18  O   UNL d   1      48.151  10.453  -0.556  0.00  0.00    -0.358 OA
ATOM     19  H   UNL d   1      48.243  11.017  -0.795  0.00  0.00     0.217 HD
ENDBRANCH  14  18
BRANCH  15  20
ATOM     20  O   UNL d   1      47.157   8.760  -0.175  0.00  0.00    -0.353 OA
ATOM     21  C   UNL d   1      46.584   7.954  -0.030  0.00  0.00     0.210 C 
ENDBRANCH  15  20
ENDBRANCH   5  12
BRANCH   6  22
ATOM     22  O   UNL d   1      46.565  14.773   4.465  0.00  0.00    -0.357 OA
ATOM     23  H   UNL d   1      46.129  14.765   4.023  0.00  0.00     0.218 HD
ENDBRANCH   6  22
BRANCH  11  24
ATOM     24  O   UNL d   1      49.004  13.115   6.280  0.00  0.00    -0.353 OA
ATOM     25  C   UNL d   1      49.634  12.344   6.382  0.00  0.00     0.210 C 
ENDBRANCH  11  24
BRANCH   9  26
ATOM     26  O   UNL d   1      47.787  14.684   6.045  0.00  0.00    -0.351 OA
ATOM     27  C   UNL d   1      47.063  14.736   6.733  0.00  0.00     0.210 C 
ENDBRANCH   9  26
TORSDOF 6
ENDMDL
MODEL 5
REMARK VINA RESULT:    -5.805      1.333      5.596
REMARK INTER + INTRA:          -2.482
REMARK INTER:                  -7.901
REMARK INTRA:                   5.418
REMARK UNBOUND:                 5.019
REMARK  6 active torsions:
REMARK  status: ('A' for Active; 'I' for Inactive)
REMARK    1  A    between atoms: O_2  and  C_15 
REMARK    2  A    between atoms: O_3  and  C_17 
REMARK    3  A    between atoms: O_4  and  C_11 
REMARK    4  A    between atoms: O_6  and  C_22 
REMARK    5  A    between atoms: O_7  and  C_20 
REMARK    6  A    between atoms: C_10  and  C_13 
ROOT
ATOM      1  O   UNL d   1      46.649  12.620   2.557  0.00  0.00    -0.309 OA
ATOM      2  O   UNL d   1      44.883  14.930   1.575  0.00  0.00    -0.287 OA
ATOM      3  C   UNL d   1      45.588  13.327   1.320  0.00  0.00     0.084 A 
ATOM      4  C   UNL d   1      46.163  12.573   1.637  0.00  0.00     0.096 A 
ATOM      5  C   UNL d   1      46.535  13.465   3.155  0.00  0.00     0.090 A 
ATOM      6  C   UNL d   1      45.128  13.268   0.435  0.00  0.00     0.119 A 
ATOM      7  C   UNL d   1      45.460  14.181   1.902  0.00  0.00     0.190 A 
ATOM      8  C   UNL d   1      46.277  11.758   1.068  0.00  0.00     0.078 A 
ATOM      9  C   UNL d   1      45.242  12.453  -0.134  0.00  0.00     0.136 A 
ATOM     10  C   UNL d   1      45.936  14.251   2.825  0.00  0.00     0.094 A 
ATOM     11  C   UNL d   1      45.817  11.699   0.182  0.00  0.00     0.107 A 
ENDROOT
BRANCH   5  12
ATOM     12  C   UNL d   1      46.996  13.521   4.040  0.00  0.00     0.001 A 
ATOM     13  C   UNL d   1      47.021  14.389   4.537  0.00  0.00     0.053 A 
ATOM     14  C   UNL d   1      47.482  14.446   5.422  0.00  0.00     0.099 A 
ATOM     15  C   UNL d   1      47.920  13.635   5.811  0.00  0.00     0.101 A 
ATOM     16  C   UNL d   1      47.896  12.767   5.314  0.00  0.00     0.040 A 
ATOM     17  C   UNL d   1      47.434  12.711   4.429  0.00  0.00     0.017 A 
BRANCH  14  18
ATOM     18  O   UNL d   1      47.507  15.314   5.920  0.00  0.00    -0.358 OA
ATOM     19  H   UNL d   1      48.039  15.627   5.971  0.00  0.00     0.217 HD
ENDBRANCH  14  18
BRANCH  15  20
ATOM     20  O   UNL d   1      48.382  13.692   6.696  0.00  0.00    -0.353 OA
ATOM     21  C   UNL d   1      48.919  12.918   7.030  0.00  0.00     0.210 C 
ENDBRANCH  15  20
ENDBRANCH   5  12
BRANCH   6  22
ATOM     22  O   UNL d   1      44.553  14.022   0.118  0.00  0.00    -0.357 OA
ATOM     23  H   UNL d   1      44.703  14.330  -0.399  0.00  0.00     0.218 HD
ENDBRANCH   6  22
BRANCH  11  24
ATOM     24  O   UNL d   1      45.931  10.884  -0.387  0.00  0.00    -0.353 OA
ATOM     25  C   UNL d   1      46.530  10.143  -0.085  0.00  0.00     0.210 C 
ENDBRANCH  11  24
BRANCH   9  26
ATOM     26  O   UNL d   1      44.782  12.394  -1.020  0.00  0.00    -0.351 OA
ATOM     27  C   UNL d   1      45.167  12.860  -1.816  0.00  0.00     0.210 C 
ENDBRANCH   9  26
TORSDOF 6
ENDMDL
