MODEL 1
REMARK VINA RESULT:    -8.423      0.000      0.000
REMARK INTER + INTRA:          -3.092
REMARK INTER:                 -13.100
REMARK INTRA:                  10.008
REMARK UNBOUND:                10.256
REMARK  14 active torsions:
REMARK  status: ('A' for Active; 'I' for Inactive)
REMARK    1  A    between atoms: C_15  and  O_1 
REMARK    2  A    between atoms: C_18  and  O_1 
REMARK    3  A    between atoms: C_16  and  O_4 
REMARK    4  A    between atoms: C_20  and  O_5 
REMARK    5  A    between atoms: O_5  and  C_27 
REMARK    6  A    between atoms: C_17  and  O_6 
REMARK    7  A    between atoms: C_19  and  O_7 
REMARK    8  A    between atoms: C_22  and  O_8 
REMARK    9  A    between atoms: C_23  and  O_9 
REMARK   10  A    between atoms: O_10  and  C_25 
REMARK   11  A    between atoms: O_12  and  C_31 
REMARK   12  A    between atoms: O_14  and  C_41 
REMARK   13  A    between atoms: C_21  and  C_25 
REMARK   14  A    between atoms: C_34  and  C_36 
ROOT
ATOM      1  O   UNL d   1      -1.397   4.649 -10.041  0.00  0.00    -0.348 OA
ATOM      2  C   UNL d   1      -1.063   5.406 -11.563  0.00  0.00     0.211 A 
ATOM      3  C   UNL d   1      -1.838   4.925 -11.972  0.00  0.00     0.183 A 
ATOM      4  C   UNL d   1      -2.393   4.306 -11.416  0.00  0.00     0.180 A 
ATOM      5  C   UNL d   1      -0.842   5.268 -10.597  0.00  0.00     0.298 A 
ATOM      6  C   UNL d   1      -2.172   4.167 -10.451  0.00  0.00     0.179 A 
ENDROOT
BRANCH   5   7
ATOM      7  O   UNL d   1      -0.067   5.749 -10.188  0.00  0.00    -0.318 OA
BRANCH   7   8
ATOM      8  C   UNL d   1       0.084   5.705  -9.201  0.00  0.00     0.077 A 
ATOM      9  C   UNL d   1       0.721   4.986  -8.798  0.00  0.00     0.075 A 
ATOM     10  C   UNL d   1       0.871   4.949  -7.768  0.00  0.00     0.095 A 
ATOM     11  O   UNL d   1       1.484   4.256  -7.390  0.00  0.00    -0.309 OA
ATOM     12  C   UNL d   1       0.410   5.596  -7.159  0.00  0.00     0.081 A 
ATOM     13  C   UNL d   1       1.637   4.209  -6.403  0.00  0.00     0.090 A 
ATOM     14  C   UNL d   1       1.177   4.855  -5.794  0.00  0.00     0.094 A 
ATOM     15  C   UNL d   1       0.564   5.549  -6.172  0.00  0.00     0.190 A 
ATOM     16  O   UNL d   1       0.103   6.195  -5.564  0.00  0.00    -0.287 OA
ATOM     17  C   UNL d   1      -0.231   6.323  -7.539  0.00  0.00     0.085 A 
ATOM     18  C   UNL d   1      -0.396   6.378  -8.566  0.00  0.00     0.074 A 
BRANCH  13  19
ATOM     19  C   UNL d   1       2.251   3.516  -6.024  0.00  0.00    -0.002 A 
ATOM     20  C   UNL d   1       3.005   3.788  -5.426  0.00  0.00     0.017 A 
ATOM     21  C   UNL d   1       3.618   3.095  -5.047  0.00  0.00     0.037 A 
ATOM     22  C   UNL d   1       3.477   2.129  -5.267  0.00  0.00     0.065 A 
ATOM     23  C   UNL d   1       2.723   1.857  -5.864  0.00  0.00     0.037 A 
ATOM     24  C   UNL d   1       2.110   2.550  -6.243  0.00  0.00     0.017 A 
BRANCH  22  25
ATOM     25  O   UNL d   1       4.091   1.436  -4.888  0.00  0.00    -0.361 OA
ATOM     26  H   UNL d   1       4.506   1.593  -4.455  0.00  0.00     0.217 HD
ENDBRANCH  22  25
ENDBRANCH  13  19
BRANCH  17  27
ATOM     27  O   UNL d   1      -0.686   6.964  -6.921  0.00  0.00    -0.360 OA
ATOM     28  H   UNL d   1      -0.664   6.872  -6.308  0.00  0.00     0.217 HD
ENDBRANCH  17  27
ENDBRANCH   7   8
ENDBRANCH   5   7
BRANCH   2  29
ATOM     29  O   UNL d   1      -0.509   6.025 -12.119  0.00  0.00    -0.346 OA
BRANCH  29  30
ATOM     30  C   UNL d   1      -0.809   6.967 -12.269  0.00  0.00     0.292 A 
ATOM     31  O   UNL d   1      -1.465   7.388 -11.643  0.00  0.00    -0.351 OA
ATOM     32  C   UNL d   1      -1.766   8.330 -11.792  0.00  0.00     0.152 A 
ATOM     33  C   UNL d   1      -1.410   8.851 -12.568  0.00  0.00     0.178 A 
ATOM     34  C   UNL d   1      -2.422   8.751 -11.166  0.00  0.00     0.042 C 
ATOM     35  C   UNL d   1      -0.753   8.430 -13.194  0.00  0.00     0.183 A 
ATOM     36  C   UNL d   1      -0.453   7.488 -13.044  0.00  0.00     0.204 A 
BRANCH  33  37
ATOM     37  O   UNL d   1      -1.710   9.793 -12.718  0.00  0.00    -0.390 OA
ATOM     38  H   UNL d   1      -1.721  10.194 -12.245  0.00  0.00     0.210 HD
ENDBRANCH  33  37
BRANCH  35  39
ATOM     39  O   UNL d   1      -0.397   8.951 -13.970  0.00  0.00    -0.390 OA
ATOM     40  H   UNL d   1      -0.628   9.512 -14.099  0.00  0.00     0.210 HD
ENDBRANCH  35  39
BRANCH  36  41
ATOM     41  O   UNL d   1       0.203   7.067 -13.670  0.00  0.00    -0.388 OA
ATOM     42  H   UNL d   1       0.193   6.454 -13.765  0.00  0.00     0.210 HD
ENDBRANCH  36  41
ENDBRANCH  29  30
ENDBRANCH   2  29
BRANCH   6  43
ATOM     43  C   UNL d   1      -2.726   3.548  -9.895  0.00  0.00     0.198 C 
BRANCH  43  44
ATOM     44  O   UNL d   1      -2.286   2.826  -9.362  0.00  0.00    -0.398 OA
ATOM     45  H   UNL d   1      -1.674   2.840  -9.265  0.00  0.00     0.209 HD
ENDBRANCH  43  44
ENDBRANCH   6  43
BRANCH   3  46
ATOM     46  O   UNL d   1      -2.059   5.063 -12.938  0.00  0.00    -0.390 OA
ATOM     47  H   UNL d   1      -1.613   5.223 -13.338  0.00  0.00     0.210 HD
ENDBRANCH   3  46
BRANCH   4  48
ATOM     48  O   UNL d   1      -3.168   3.824 -11.826  0.00  0.00    -0.390 OA
ATOM     49  H   UNL d   1      -3.561   4.129 -12.196  0.00  0.00     0.210 HD
ENDBRANCH   4  48
TORSDOF 14
ENDMDL
MODEL 2
REMARK VINA RESULT:    -8.311      1.216      7.610
REMARK INTER + INTRA:          -2.914
REMARK INTER:                 -12.908
REMARK INTRA:                   9.994
REMARK UNBOUND:                10.256
REMARK  14 active torsions:
REMARK  status: ('A' for Active; 'I' for Inactive)
REMARK    1  A    between atoms: C_15  and  O_1 
REMARK    2  A    between atoms: C_18  and  O_1 
REMARK    3  A    between atoms: C_16  and  O_4 
REMARK    4  A    between atoms: C_20  and  O_5 
REMARK    5  A    between atoms: O_5  and  C_27 
REMARK    6  A    between atoms: C_17  and  O_6 
REMARK    7  A    between atoms: C_19  and  O_7 
REMARK    8  A    between atoms: C_22  and  O_8 
REMARK    9  A    between atoms: C_23  and  O_9 
REMARK   10  A    between atoms: O_10  and  C_25 
REMARK   11  A    between atoms: O_12  and  C_31 
REMARK   12  A    between atoms: O_14  and  C_41 
REMARK   13  A    between atoms: C_21  and  C_25 
REMARK   14  A    between atoms: C_34  and  C_36 
ROOT
ATOM      1  O   UNL d   1      -0.401   5.701  -7.151  0.00  0.00    -0.348 OA
ATOM      2  C   UNL d   1       0.996   4.980  -6.423  0.00  0.00     0.211 A 
ATOM      3  C   UNL d   1       0.616   5.161  -5.516  0.00  0.00     0.183 A 
ATOM      4  C   UNL d   1      -0.273   5.612  -5.426  0.00  0.00     0.180 A 
ATOM      5  C   UNL d   1       0.488   5.250  -7.241  0.00  0.00     0.298 A 
ATOM      6  C   UNL d   1      -0.781   5.882  -6.244  0.00  0.00     0.179 A 
ENDROOT
BRANCH   5   7
ATOM      7  O   UNL d   1       0.868   5.070  -8.148  0.00  0.00    -0.318 OA
BRANCH   7   8
ATOM      8  C   UNL d   1       0.292   5.169  -8.960  0.00  0.00     0.077 A 
ATOM      9  C   UNL d   1       0.315   6.051  -9.514  0.00  0.00     0.075 A 
ATOM     10  C   UNL d   1      -0.288   6.143 -10.358  0.00  0.00     0.095 A 
ATOM     11  O   UNL d   1      -0.261   6.993 -10.885  0.00  0.00    -0.309 OA
ATOM     12  C   UNL d   1      -0.889   5.397 -10.644  0.00  0.00     0.081 A 
ATOM     13  C   UNL d   1      -0.834   7.096 -11.698  0.00  0.00     0.090 A 
ATOM     14  C   UNL d   1      -1.435   6.350 -11.983  0.00  0.00     0.094 A 
ATOM     15  C   UNL d   1      -1.463   5.500 -11.456  0.00  0.00     0.190 A 
ATOM     16  O   UNL d   1      -2.064   4.754 -11.742  0.00  0.00    -0.287 OA
ATOM     17  C   UNL d   1      -0.928   4.506 -10.105  0.00  0.00     0.085 A 
ATOM     18  C   UNL d   1      -0.334   4.392  -9.258  0.00  0.00     0.074 A 
BRANCH  13  19
ATOM     19  C   UNL d   1      -0.807   7.946 -12.225  0.00  0.00    -0.002 A 
ATOM     20  C   UNL d   1      -0.430   7.948 -13.151  0.00  0.00     0.017 A 
ATOM     21  C   UNL d   1      -0.403   8.797 -13.677  0.00  0.00     0.037 A 
ATOM     22  C   UNL d   1      -0.753   9.645 -13.279  0.00  0.00     0.065 A 
ATOM     23  C   UNL d   1      -1.130   9.642 -12.352  0.00  0.00     0.037 A 
ATOM     24  C   UNL d   1      -1.157   8.793 -11.825  0.00  0.00     0.017 A 
BRANCH  22  25
ATOM     25  O   UNL d   1      -0.725  10.494 -13.806  0.00  0.00    -0.361 OA
ATOM     26  H   UNL d   1      -1.104  10.963 -13.658  0.00  0.00     0.217 HD
ENDBRANCH  22  25
ENDBRANCH  13  19
BRANCH  17  27
ATOM     27  O   UNL d   1      -1.534   3.767 -10.400  0.00  0.00    -0.360 OA
ATOM     28  H   UNL d   1      -1.325   3.334 -10.792  0.00  0.00     0.217 HD
ENDBRANCH  17  27
ENDBRANCH   7   8
ENDBRANCH   5   7
BRANCH   2  29
ATOM     29  O   UNL d   1       1.884   4.529  -6.512  0.00  0.00    -0.346 OA
BRANCH  29  30
ATOM     30  C   UNL d   1       1.958   3.541  -6.382  0.00  0.00     0.292 A 
ATOM     31  O   UNL d   1       1.176   2.950  -6.581  0.00  0.00    -0.351 OA
ATOM     32  C   UNL d   1       1.250   1.961  -6.451  0.00  0.00     0.152 A 
ATOM     33  C   UNL d   1       2.106   1.563  -6.122  0.00  0.00     0.178 A 
ATOM     34  C   UNL d   1       0.468   1.371  -6.651  0.00  0.00     0.042 C 
ATOM     35  C   UNL d   1       2.888   2.154  -5.923  0.00  0.00     0.183 A 
ATOM     36  C   UNL d   1       2.814   3.142  -6.053  0.00  0.00     0.204 A 
BRANCH  33  37
ATOM     37  O   UNL d   1       2.180   0.574  -5.992  0.00  0.00    -0.390 OA
ATOM     38  H   UNL d   1       2.642   0.340  -5.651  0.00  0.00     0.210 HD
ENDBRANCH  33  37
BRANCH  35  39
ATOM     39  O   UNL d   1       3.744   1.755  -5.594  0.00  0.00    -0.390 OA
ATOM     40  H   UNL d   1       3.889   1.170  -5.737  0.00  0.00     0.210 HD
ENDBRANCH  35  39
BRANCH  36  41
ATOM     41  O   UNL d   1       3.596   3.733  -5.854  0.00  0.00    -0.388 OA
ATOM     42  H   UNL d   1       3.887   4.028  -6.315  0.00  0.00     0.210 HD
ENDBRANCH  36  41
ENDBRANCH  29  30
ENDBRANCH   2  29
BRANCH   6  43
ATOM     43  C   UNL d   1      -1.669   6.333  -6.155  0.00  0.00     0.198 C 
BRANCH  43  44
ATOM     44  O   UNL d   1      -2.404   6.120  -6.798  0.00  0.00    -0.398 OA
ATOM     45  H   UNL d   1      -2.411   5.573  -7.091  0.00  0.00     0.209 HD
ENDBRANCH  43  44
ENDBRANCH   6  43
BRANCH   3  46
ATOM     46  O   UNL d   1       1.124   4.891  -4.698  0.00  0.00    -0.390 OA
ATOM     47  H   UNL d   1       1.445   4.360  -4.693  0.00  0.00     0.210 HD
ENDBRANCH   3  46
BRANCH   4  48
ATOM     48  O   UNL d   1      -0.653   5.792  -4.519  0.00  0.00    -0.390 OA
ATOM     49  H   UNL d   1      -0.336   6.138  -4.113  0.00  0.00     0.210 HD
ENDBRANCH   4  48
TORSDOF 14
ENDMDL
MODEL 3
REMARK VINA RESULT:    -8.286      1.591      7.294
REMARK INTER + INTRA:          -2.875
REMARK INTER:                 -12.736
REMARK INTRA:                   9.861
REMARK UNBOUND:                10.256
REMARK  14 active torsions:
REMARK  status: ('A' for Active; 'I' for Inactive)
REMARK    1  A    between atoms: C_15  and  O_1 
REMARK    2  A    between atoms: C_18  and  O_1 
REMARK    3  A    between atoms: C_16  and  O_4 
REMARK    4  A    between atoms: C_20  and  O_5 
REMARK    5  A    between atoms: O_5  and  C_27 
REMARK    6  A    between atoms: C_17  and  O_6 
REMARK    7  A    between atoms: C_19  and  O_7 
REMARK    8  A    between atoms: C_22  and  O_8 
REMARK    9  A    between atoms: C_23  and  O_9 
REMARK   10  A    between atoms: O_10  and  C_25 
REMARK   11  A    between atoms: O_12  and  C_31 
REMARK   12  A    between atoms: O_14  and  C_41 
REMARK   13  A    between atoms: C_21  and  C_25 
REMARK   14  A    between atoms: C_34  and  C_36 
ROOT
ATOM      1  O   UNL d   1      -0.210   5.886  -6.545  0.00  0.00    -0.348 OA
ATOM      2  C   UNL d   1       1.106   4.998  -5.852  0.00  0.00     0.211 A 
ATOM      3  C   UNL d   1       0.656   5.027  -4.960  0.00  0.00     0.183 A 
ATOM      4  C   UNL d   1      -0.227   5.486  -4.860  0.00  0.00     0.180 A 
ATOM      5  C   UNL d   1       0.673   5.428  -6.645  0.00  0.00     0.298 A 
ATOM      6  C   UNL d   1      -0.660   5.915  -5.652  0.00  0.00     0.179 A 
ENDROOT
BRANCH   5   7
ATOM      7  O   UNL d   1       1.123   5.399  -7.537  0.00  0.00    -0.318 OA
BRANCH   7   8
ATOM      8  C   UNL d   1       0.648   5.738  -8.349  0.00  0.00     0.077 A 
ATOM      9  C   UNL d   1      -0.012   5.120  -8.868  0.00  0.00     0.075 A 
ATOM     10  C   UNL d   1      -0.502   5.484  -9.711  0.00  0.00     0.095 A 
ATOM     11  O   UNL d   1      -1.133   4.885 -10.204  0.00  0.00    -0.309 OA
ATOM     12  C   UNL d   1      -0.348   6.420 -10.031  0.00  0.00     0.081 A 
ATOM     13  C   UNL d   1      -1.611   5.222 -11.016  0.00  0.00     0.090 A 
ATOM     14  C   UNL d   1      -1.457   6.157 -11.335  0.00  0.00     0.094 A 
ATOM     15  C   UNL d   1      -0.826   6.756 -10.842  0.00  0.00     0.190 A 
ATOM     16  O   UNL d   1      -0.672   7.691 -11.161  0.00  0.00    -0.287 OA
ATOM     17  C   UNL d   1       0.306   7.055  -9.527  0.00  0.00     0.085 A 
ATOM     18  C   UNL d   1       0.807   6.712  -8.682  0.00  0.00     0.074 A 
BRANCH  13  19
ATOM     19  C   UNL d   1      -2.242   4.623 -11.509  0.00  0.00    -0.002 A 
ATOM     20  C   UNL d   1      -2.173   4.532 -12.502  0.00  0.00     0.017 A 
ATOM     21  C   UNL d   1      -2.804   3.933 -12.994  0.00  0.00     0.037 A 
ATOM     22  C   UNL d   1      -3.505   3.425 -12.494  0.00  0.00     0.065 A 
ATOM     23  C   UNL d   1      -3.574   3.515 -11.500  0.00  0.00     0.037 A 
ATOM     24  C   UNL d   1      -2.942   4.114 -11.007  0.00  0.00     0.017 A 
BRANCH  22  25
ATOM     25  O   UNL d   1      -4.136   2.826 -12.987  0.00  0.00    -0.361 OA
ATOM     26  H   UNL d   1      -3.952   2.542 -13.506  0.00  0.00     0.217 HD
ENDBRANCH  22  25
ENDBRANCH  13  19
BRANCH  17  27
ATOM     27  O   UNL d   1       0.452   7.989  -9.856  0.00  0.00    -0.360 OA
ATOM     28  H   UNL d   1       0.029   8.258 -10.221  0.00  0.00     0.217 HD
ENDBRANCH  17  27
ENDBRANCH   7   8
ENDBRANCH   5   7
BRANCH   2  29
ATOM     29  O   UNL d   1       1.989   4.539  -5.952  0.00  0.00    -0.346 OA
BRANCH  29  30
ATOM     30  C   UNL d   1       2.028   3.544  -6.045  0.00  0.00     0.292 A 
ATOM     31  O   UNL d   1       1.225   3.040  -6.365  0.00  0.00    -0.351 OA
ATOM     32  C   UNL d   1       1.264   2.045  -6.458  0.00  0.00     0.152 A 
ATOM     33  C   UNL d   1       2.105   1.555  -6.231  0.00  0.00     0.178 A 
ATOM     34  C   UNL d   1       0.462   1.542  -6.778  0.00  0.00     0.042 C 
ATOM     35  C   UNL d   1       2.907   2.058  -5.912  0.00  0.00     0.183 A 
ATOM     36  C   UNL d   1       2.869   3.053  -5.819  0.00  0.00     0.204 A 
BRANCH  33  37
ATOM     37  O   UNL d   1       2.144   0.560  -6.325  0.00  0.00    -0.390 OA
ATOM     38  H   UNL d   1       1.708   0.206  -6.061  0.00  0.00     0.210 HD
ENDBRANCH  33  37
BRANCH  35  39
ATOM     39  O   UNL d   1       3.749   1.567  -5.685  0.00  0.00    -0.390 OA
ATOM     40  H   UNL d   1       4.206   1.859  -5.385  0.00  0.00     0.210 HD
ENDBRANCH  35  39
BRANCH  36  41
ATOM     41  O   UNL d   1       3.671   3.557  -5.499  0.00  0.00    -0.388 OA
ATOM     42  H   UNL d   1       4.178   3.250  -5.316  0.00  0.00     0.210 HD
ENDBRANCH  36  41
ENDBRANCH  29  30
ENDBRANCH   2  29
BRANCH   6  43
ATOM     43  C   UNL d   1      -1.543   6.374  -5.553  0.00  0.00     0.198 C 
BRANCH  43  44
ATOM     44  O   UNL d   1      -2.199   6.364  -6.307  0.00  0.00    -0.398 OA
ATOM     45  H   UNL d   1      -2.303   6.880  -6.635  0.00  0.00     0.209 HD
ENDBRANCH  43  44
ENDBRANCH   6  43
BRANCH   3  46
ATOM     46  O   UNL d   1       1.088   4.597  -4.167  0.00  0.00    -0.390 OA
ATOM     47  H   UNL d   1       1.476   4.924  -3.810  0.00  0.00     0.210 HD
ENDBRANCH   3  46
BRANCH   4  48
ATOM     48  O   UNL d   1      -0.677   5.515  -3.968  0.00  0.00    -0.390 OA
ATOM     49  H   UNL d   1      -1.274   5.677  -3.927  0.00  0.00     0.210 HD
ENDBRANCH   4  48
TORSDOF 14
ENDMDL
MODEL 4
REMARK VINA RESULT:    -8.270      2.314      4.774
REMARK INTER + INTRA:          -2.848
REMARK INTER:                 -12.725
REMARK INTRA:                   9.877
REMARK UNBOUND:                10.256
REMARK  14 active torsions:
REMARK  status: ('A' for Active; 'I' for Inactive)
REMARK    1  A    between atoms: C_15  and  O_1 
REMARK    2  A    between atoms: C_18  and  O_1 
REMARK    3  A    between atoms: C_16  and  O_4 
REMARK    4  A    between atoms: C_20  and  O_5 
REMARK    5  A    between atoms: O_5  and  C_27 
REMARK    6  A    between atoms: C_17  and  O_6 
REMARK    7  A    between atoms: C_19  and  O_7 
REMARK    8  A    between atoms: C_22  and  O_8 
REMARK    9  A    between atoms: C_23  and  O_9 
REMARK   10  A    between atoms: O_10  and  C_25 
REMARK   11  A    between atoms: O_12  and  C_31 
REMARK   12  A    between atoms: O_14  and  C_41 
REMARK   13  A    between atoms: C_21  and  C_25 
REMARK   14  A    between atoms: C_34  and  C_36 
ROOT
ATOM      1  O   UNL d   1       0.428   5.261  -5.528  0.00  0.00    -0.348 OA
ATOM      2  C   UNL d   1       0.174   6.161  -6.986  0.00  0.00     0.211 A 
ATOM      3  C   UNL d   1      -0.579   6.653  -6.551  0.00  0.00     0.183 A 
ATOM      4  C   UNL d   1      -0.829   6.450  -5.604  0.00  0.00     0.180 A 
ATOM      5  C   UNL d   1       0.677   5.464  -6.475  0.00  0.00     0.298 A 
ATOM      6  C   UNL d   1      -0.326   5.754  -5.093  0.00  0.00     0.179 A 
ENDROOT
BRANCH   5   7
ATOM      7  O   UNL d   1       1.431   4.971  -6.910  0.00  0.00    -0.318 OA
BRANCH   7   8
ATOM      8  C   UNL d   1       1.751   4.106  -6.524  0.00  0.00     0.077 A 
ATOM      9  C   UNL d   1       2.544   4.095  -5.848  0.00  0.00     0.075 A 
ATOM     10  C   UNL d   1       2.870   3.189  -5.453  0.00  0.00     0.095 A 
ATOM     11  O   UNL d   1       3.631   3.186  -4.804  0.00  0.00    -0.309 OA
ATOM     12  C   UNL d   1       2.432   2.328  -5.713  0.00  0.00     0.081 A 
ATOM     13  C   UNL d   1       3.955   2.323  -4.417  0.00  0.00     0.090 A 
ATOM     14  C   UNL d   1       3.517   1.462  -4.677  0.00  0.00     0.094 A 
ATOM     15  C   UNL d   1       2.756   1.464  -5.325  0.00  0.00     0.190 A 
ATOM     16  O   UNL d   1       2.318   0.604  -5.586  0.00  0.00    -0.287 OA
ATOM     17  C   UNL d   1       1.638   2.315  -6.387  0.00  0.00     0.085 A 
ATOM     18  C   UNL d   1       1.296   3.209  -6.795  0.00  0.00     0.074 A 
BRANCH  13  19
ATOM     19  C   UNL d   1       4.717   2.320  -3.768  0.00  0.00    -0.002 A 
ATOM     20  C   UNL d   1       4.544   2.462  -2.793  0.00  0.00     0.017 A 
ATOM     21  C   UNL d   1       5.306   2.459  -2.146  0.00  0.00     0.037 A 
ATOM     22  C   UNL d   1       6.240   2.314  -2.472  0.00  0.00     0.065 A 
ATOM     23  C   UNL d   1       6.412   2.171  -3.447  0.00  0.00     0.037 A 
ATOM     24  C   UNL d   1       5.650   2.174  -4.095  0.00  0.00     0.017 A 
BRANCH  22  25
ATOM     25  O   UNL d   1       7.001   2.311  -1.824  0.00  0.00    -0.361 OA
ATOM     26  H   UNL d   1       7.505   1.967  -1.939  0.00  0.00     0.217 HD
ENDBRANCH  22  25
ENDBRANCH  13  19
BRANCH  17  27
ATOM     27  O   UNL d   1       1.207   1.448  -6.640  0.00  0.00    -0.360 OA
ATOM     28  H   UNL d   1       1.523   1.031  -6.974  0.00  0.00     0.217 HD
ENDBRANCH  17  27
ENDBRANCH   7   8
ENDBRANCH   5   7
BRANCH   2  29
ATOM     29  O   UNL d   1       0.423   6.364  -7.933  0.00  0.00    -0.346 OA
BRANCH  29  30
ATOM     30  C   UNL d   1       0.035   5.824  -8.679  0.00  0.00     0.292 A 
ATOM     31  O   UNL d   1      -0.833   5.344  -8.551  0.00  0.00    -0.351 OA
ATOM     32  C   UNL d   1      -1.221   4.804  -9.297  0.00  0.00     0.152 A 
ATOM     33  C   UNL d   1      -0.741   4.743 -10.172  0.00  0.00     0.178 A 
ATOM     34  C   UNL d   1      -2.089   4.324  -9.169  0.00  0.00     0.042 C 
ATOM     35  C   UNL d   1       0.127   5.222 -10.301  0.00  0.00     0.183 A 
ATOM     36  C   UNL d   1       0.515   5.763  -9.554  0.00  0.00     0.204 A 
BRANCH  33  37
ATOM     37  O   UNL d   1      -1.129   4.203 -10.919  0.00  0.00    -0.390 OA
ATOM     38  H   UNL d   1      -1.690   3.946 -10.857  0.00  0.00     0.210 HD
ENDBRANCH  33  37
BRANCH  35  39
ATOM     39  O   UNL d   1       0.607   5.162 -11.176  0.00  0.00    -0.390 OA
ATOM     40  H   UNL d   1       1.225   5.208 -11.195  0.00  0.00     0.210 HD
ENDBRANCH  35  39
BRANCH  36  41
ATOM     41  O   UNL d   1       1.384   6.242  -9.683  0.00  0.00    -0.388 OA
ATOM     42  H   UNL d   1       1.387   6.853  -9.793  0.00  0.00     0.210 HD
ENDBRANCH  36  41
ENDBRANCH  29  30
ENDBRANCH   2  29
BRANCH   6  43
ATOM     43  C   UNL d   1      -0.575   5.550  -4.146  0.00  0.00     0.198 C 
BRANCH  43  44
ATOM     44  O   UNL d   1       0.139   5.391  -3.464  0.00  0.00    -0.398 OA
ATOM     45  H   UNL d   1       0.211   5.788  -2.993  0.00  0.00     0.209 HD
ENDBRANCH  43  44
ENDBRANCH   6  43
BRANCH   3  46
ATOM     46  O   UNL d   1      -1.083   7.350  -7.062  0.00  0.00    -0.390 OA
ATOM     47  H   UNL d   1      -1.287   7.227  -7.635  0.00  0.00     0.210 HD
ENDBRANCH   3  46
BRANCH   4  48
ATOM     48  O   UNL d   1      -1.582   6.943  -5.168  0.00  0.00    -0.390 OA
ATOM     49  H   UNL d   1      -1.581   7.032  -4.555  0.00  0.00     0.210 HD
ENDBRANCH   4  48
TORSDOF 14
ENDMDL
MODEL 5
REMARK VINA RESULT:    -8.225      3.198      9.560
REMARK INTER + INTRA:          -2.778
REMARK INTER:                 -12.750
REMARK INTRA:                   9.972
REMARK UNBOUND:                10.256
REMARK  14 active torsions:
REMARK  status: ('A' for Active; 'I' for Inactive)
REMARK    1  A    between atoms: C_15  and  O_1 
REMARK    2  A    between atoms: C_18  and  O_1 
REMARK    3  A    between atoms: C_16  and  O_4 
REMARK    4  A    between atoms: C_20  and  O_5 
REMARK    5  A    between atoms: O_5  and  C_27 
REMARK    6  A    between atoms: C_17  and  O_6 
REMARK    7  A    between atoms: C_19  and  O_7 
REMARK    8  A    between atoms: C_22  and  O_8 
REMARK    9  A    between atoms: C_23  and  O_9 
REMARK   10  A    between atoms: O_10  and  C_25 
REMARK   11  A    between atoms: O_12  and  C_31 
REMARK   12  A    between atoms: O_14  and  C_41 
REMARK   13  A    between atoms: C_21  and  C_25 
REMARK   14  A    between atoms: C_34  and  C_36 
ROOT
ATOM      1  O   UNL d   1       2.751   1.838  -3.252  0.00  0.00    -0.348 OA
ATOM      2  C   UNL d   1       4.435   2.241  -3.233  0.00  0.00     0.211 A 
ATOM      3  C   UNL d   1       4.367   2.481  -2.265  0.00  0.00     0.183 A 
ATOM      4  C   UNL d   1       3.491   2.400  -1.790  0.00  0.00     0.180 A 
ATOM      5  C   UNL d   1       3.627   1.919  -3.727  0.00  0.00     0.298 A 
ATOM      6  C   UNL d   1       2.683   2.078  -2.283  0.00  0.00     0.179 A 
ENDROOT
BRANCH   5   7
ATOM      7  O   UNL d   1       3.695   1.679  -4.695  0.00  0.00    -0.318 OA
BRANCH   7   8
ATOM      8  C   UNL d   1       2.925   1.854  -5.309  0.00  0.00     0.077 A 
ATOM      9  C   UNL d   1       2.803   2.793  -5.745  0.00  0.00     0.075 A 
ATOM     10  C   UNL d   1       1.998   2.963  -6.382  0.00  0.00     0.095 A 
ATOM     11  O   UNL d   1       1.888   3.867  -6.796  0.00  0.00    -0.309 OA
ATOM     12  C   UNL d   1       1.338   2.238  -6.582  0.00  0.00     0.081 A 
ATOM     13  C   UNL d   1       1.119   4.045  -7.411  0.00  0.00     0.090 A 
ATOM     14  C   UNL d   1       0.460   3.320  -7.610  0.00  0.00     0.094 A 
ATOM     15  C   UNL d   1       0.570   2.416  -7.196  0.00  0.00     0.190 A 
ATOM     16  O   UNL d   1      -0.089   1.691  -7.396  0.00  0.00    -0.287 OA
ATOM     17  C   UNL d   1       1.440   1.292  -6.158  0.00  0.00     0.085 A 
ATOM     18  C   UNL d   1       2.238   1.099  -5.517  0.00  0.00     0.074 A 
BRANCH  13  19
ATOM     19  C   UNL d   1       1.009   4.949  -7.825  0.00  0.00    -0.002 A 
ATOM     20  C   UNL d   1       1.006   5.046  -8.820  0.00  0.00     0.017 A 
ATOM     21  C   UNL d   1       0.896   5.949  -9.234  0.00  0.00     0.037 A 
ATOM     22  C   UNL d   1       0.788   6.756  -8.653  0.00  0.00     0.065 A 
ATOM     23  C   UNL d   1       0.791   6.659  -7.658  0.00  0.00     0.037 A 
ATOM     24  C   UNL d   1       0.901   5.755  -7.243  0.00  0.00     0.017 A 
BRANCH  22  25
ATOM     25  O   UNL d   1       0.678   7.659  -9.068  0.00  0.00    -0.361 OA
ATOM     26  H   UNL d   1       0.212   8.027  -8.890  0.00  0.00     0.217 HD
ENDBRANCH  22  25
ENDBRANCH  13  19
BRANCH  17  27
ATOM     27  O   UNL d   1       0.775   0.574  -6.365  0.00  0.00    -0.360 OA
ATOM     28  H   UNL d   1       0.394   0.636  -6.851  0.00  0.00     0.217 HD
ENDBRANCH  17  27
ENDBRANCH   7   8
ENDBRANCH   5   7
BRANCH   2  29
ATOM     29  O   UNL d   1       5.311   2.322  -3.708  0.00  0.00    -0.346 OA
BRANCH  29  30
ATOM     30  C   UNL d   1       5.943   1.547  -3.728  0.00  0.00     0.292 A 
ATOM     31  O   UNL d   1       5.926   0.869  -2.994  0.00  0.00    -0.351 OA
ATOM     32  C   UNL d   1       6.557   0.094  -3.014  0.00  0.00     0.152 A 
ATOM     33  C   UNL d   1       7.206  -0.003  -3.768  0.00  0.00     0.178 A 
ATOM     34  C   UNL d   1       6.540  -0.584  -2.279  0.00  0.00     0.042 C 
ATOM     35  C   UNL d   1       7.224   0.675  -4.503  0.00  0.00     0.183 A 
ATOM     36  C   UNL d   1       6.592   1.450  -4.483  0.00  0.00     0.204 A 
BRANCH  33  37
ATOM     37  O   UNL d   1       7.838  -0.778  -3.788  0.00  0.00    -0.390 OA
ATOM     38  H   UNL d   1       8.186  -0.881  -4.291  0.00  0.00     0.210 HD
ENDBRANCH  33  37
BRANCH  35  39
ATOM     39  O   UNL d   1       7.873   0.578  -5.257  0.00  0.00    -0.390 OA
ATOM     40  H   UNL d   1       7.945   0.029  -5.535  0.00  0.00     0.210 HD
ENDBRANCH  35  39
BRANCH  36  41
ATOM     41  O   UNL d   1       6.609   2.128  -5.218  0.00  0.00    -0.388 OA
ATOM     42  H   UNL d   1       6.755   2.718  -5.092  0.00  0.00     0.210 HD
ENDBRANCH  36  41
ENDBRANCH  29  30
ENDBRANCH   2  29
BRANCH   6  43
ATOM     43  C   UNL d   1       1.806   1.997  -1.809  0.00  0.00     0.198 C 
BRANCH  43  44
ATOM     44  O   UNL d   1       0.957   2.221  -2.286  0.00  0.00    -0.398 OA
ATOM     45  H   UNL d   1       0.760   2.808  -2.309  0.00  0.00     0.209 HD
ENDBRANCH  43  44
ENDBRANCH   6  43
BRANCH   3  46
ATOM     46  O   UNL d   1       5.175   2.802  -1.772  0.00  0.00    -0.390 OA
ATOM     47  H   UNL d   1       5.450   3.332  -1.939  0.00  0.00     0.210 HD
ENDBRANCH   3  46
BRANCH   4  48
ATOM     48  O   UNL d   1       3.423   2.640  -0.822  0.00  0.00    -0.390 OA
ATOM     49  H   UNL d   1       3.095   3.136  -0.648  0.00  0.00     0.210 HD
ENDBRANCH   4  48
TORSDOF 14
ENDMDL
