MODEL 1
REMARK VINA RESULT:    -7.725      0.000      0.000
REMARK INTER + INTRA:          -7.407
REMARK INTER:                  -9.327
REMARK INTRA:                   1.920
REMARK UNBOUND:                 1.899
REMARK  5 active torsions:
REMARK  status: ('A' for Active; 'I' for Inactive)
REMARK    1  A    between atoms: O_2  and  C_13 
REMARK    2  A    between atoms: O_3  and  C_19 
REMARK    3  A    between atoms: O_5  and  C_17 
REMARK    4  A    between atoms: O_6  and  C_21 
REMARK    5  A    between atoms: C_8  and  C_10 
ROOT
ATOM      1  O   UNL d   1      47.292  16.965  19.702  0.00  0.00    -0.309 OA
ATOM      2  O   UNL d   1      47.854  19.497  18.194  0.00  0.00    -0.287 OA
ATOM      3  C   UNL d   1      48.033  18.528  19.618  0.00  0.00     0.081 A 
ATOM      4  C   UNL d   1      46.925  17.089  18.780  0.00  0.00     0.090 A 
ATOM      5  C   UNL d   1      47.846  17.684  20.121  0.00  0.00     0.095 A 
ATOM      6  C   UNL d   1      47.666  18.653  18.696  0.00  0.00     0.190 A 
ATOM      7  C   UNL d   1      47.112  17.933  18.277  0.00  0.00     0.094 A 
ATOM      8  C   UNL d   1      48.609  19.286  20.042  0.00  0.00     0.085 A 
ATOM      9  C   UNL d   1      48.221  17.540  21.082  0.00  0.00     0.075 A 
ATOM     10  C   UNL d   1      48.799  18.284  21.525  0.00  0.00     0.071 A 
ATOM     11  C   UNL d   1      48.994  19.163  21.002  0.00  0.00     0.074 A 
ENDROOT
BRANCH   4  12
ATOM     12  C   UNL d   1      46.371  16.370  18.361  0.00  0.00     0.001 A 
ATOM     13  C   UNL d   1      45.501  16.104  18.775  0.00  0.00     0.054 A 
ATOM     14  C   UNL d   1      44.947  15.384  18.356  0.00  0.00     0.102 A 
ATOM     15  C   UNL d   1      45.263  14.932  17.523  0.00  0.00     0.099 A 
ATOM     16  C   UNL d   1      46.133  15.198  17.108  0.00  0.00     0.040 A 
ATOM     17  C   UNL d   1      46.687  15.917  17.527  0.00  0.00     0.017 A 
BRANCH  14  18
ATOM     18  O   UNL d   1      44.077  15.118  18.771  0.00  0.00    -0.353 OA
ATOM     19  C   UNL d   1      43.867  15.389  19.710  0.00  0.00     0.210 C 
ENDBRANCH  14  18
BRANCH  15  20
ATOM     20  O   UNL d   1      44.709  14.212  17.104  0.00  0.00    -0.358 OA
ATOM     21  H   UNL d   1      44.930  13.634  17.065  0.00  0.00     0.217 HD
ENDBRANCH  15  20
ENDBRANCH   4  12
BRANCH   8  22
ATOM     22  O   UNL d   1      48.789  20.125  19.530  0.00  0.00    -0.360 OA
ATOM     23  H   UNL d   1      48.318  20.461  19.309  0.00  0.00     0.217 HD
ENDBRANCH   8  22
BRANCH  10  24
ATOM     24  O   UNL d   1      49.164  18.156  22.447  0.00  0.00    -0.361 OA
ATOM     25  H   UNL d   1      49.523  18.593  22.702  0.00  0.00     0.217 HD
ENDBRANCH  10  24
TORSDOF 5
ENDMDL
MODEL 2
REMARK VINA RESULT:    -7.400      1.435      2.349
REMARK INTER + INTRA:          -7.015
REMARK INTER:                  -9.090
REMARK INTRA:                   2.075
REMARK UNBOUND:                 1.899
REMARK  5 active torsions:
REMARK  status: ('A' for Active; 'I' for Inactive)
REMARK    1  A    between atoms: O_2  and  C_13 
REMARK    2  A    between atoms: O_3  and  C_19 
REMARK    3  A    between atoms: O_5  and  C_17 
REMARK    4  A    between atoms: O_6  and  C_21 
REMARK    5  A    between atoms: C_8  and  C_10 
ROOT
ATOM      1  O   UNL d   1      47.418  17.338  18.540  0.00  0.00    -0.309 OA
ATOM      2  O   UNL d   1      47.418  16.057  21.252  0.00  0.00    -0.287 OA
ATOM      3  C   UNL d   1      47.829  17.387  20.222  0.00  0.00     0.081 A 
ATOM      4  C   UNL d   1      47.007  16.436  18.666  0.00  0.00     0.090 A 
ATOM      5  C   UNL d   1      47.829  17.814  19.317  0.00  0.00     0.095 A 
ATOM      6  C   UNL d   1      47.418  16.484  20.348  0.00  0.00     0.190 A 
ATOM      7  C   UNL d   1      47.007  16.009  19.570  0.00  0.00     0.094 A 
ATOM      8  C   UNL d   1      48.254  17.870  21.041  0.00  0.00     0.085 A 
ATOM      9  C   UNL d   1      48.254  18.754  19.170  0.00  0.00     0.075 A 
ATOM     10  C   UNL d   1      48.684  19.255  19.975  0.00  0.00     0.071 A 
ATOM     11  C   UNL d   1      48.684  18.811  20.916  0.00  0.00     0.074 A 
ENDROOT
BRANCH   4  12
ATOM     12  C   UNL d   1      46.596  15.960  17.889  0.00  0.00     0.001 A 
ATOM     13  C   UNL d   1      46.066  16.472  17.212  0.00  0.00     0.054 A 
ATOM     14  C   UNL d   1      45.655  15.997  16.435  0.00  0.00     0.102 A 
ATOM     15  C   UNL d   1      45.774  15.009  16.333  0.00  0.00     0.099 A 
ATOM     16  C   UNL d   1      46.303  14.497  17.009  0.00  0.00     0.040 A 
ATOM     17  C   UNL d   1      46.714  14.972  17.787  0.00  0.00     0.017 A 
BRANCH  14  18
ATOM     18  O   UNL d   1      45.126  16.509  15.758  0.00  0.00    -0.353 OA
ATOM     19  C   UNL d   1      45.026  17.500  15.847  0.00  0.00     0.210 C 
ENDBRANCH  14  18
BRANCH  15  20
ATOM     20  O   UNL d   1      45.363  14.533  15.555  0.00  0.00    -0.358 OA
ATOM     21  H   UNL d   1      45.687  14.104  15.247  0.00  0.00     0.217 HD
ENDBRANCH  15  20
ENDBRANCH   4  12
BRANCH   8  22
ATOM     22  O   UNL d   1      48.248  17.433  21.940  0.00  0.00    -0.360 OA
ATOM     23  H   UNL d   1      48.779  17.356  22.250  0.00  0.00     0.217 HD
ENDBRANCH   8  22
BRANCH  10  24
ATOM     24  O   UNL d   1      49.094  20.158  19.844  0.00  0.00    -0.361 OA
ATOM     25  H   UNL d   1      49.150  20.545  20.325  0.00  0.00     0.217 HD
ENDBRANCH  10  24
TORSDOF 5
ENDMDL
MODEL 3
REMARK VINA RESULT:    -7.368      1.496      5.052
REMARK INTER + INTRA:          -6.976
REMARK INTER:                  -9.062
REMARK INTRA:                   2.086
REMARK UNBOUND:                 1.899
REMARK  5 active torsions:
REMARK  status: ('A' for Active; 'I' for Inactive)
REMARK    1  A    between atoms: O_2  and  C_13 
REMARK    2  A    between atoms: O_3  and  C_19 
REMARK    3  A    between atoms: O_5  and  C_17 
REMARK    4  A    between atoms: O_6  and  C_21 
REMARK    5  A    between atoms: C_8  and  C_10 
ROOT
ATOM      1  O   UNL d   1      47.118  16.248  18.641  0.00  0.00    -0.309 OA
ATOM      2  O   UNL d   1      45.446  18.293  17.217  0.00  0.00    -0.287 OA
ATOM      3  C   UNL d   1      46.053  16.675  17.343  0.00  0.00     0.081 A 
ATOM      4  C   UNL d   1      47.068  17.184  18.989  0.00  0.00     0.090 A 
ATOM      5  C   UNL d   1      46.610  15.994  17.818  0.00  0.00     0.095 A 
ATOM      6  C   UNL d   1      46.003  17.611  17.691  0.00  0.00     0.190 A 
ATOM      7  C   UNL d   1      46.511  17.866  18.515  0.00  0.00     0.094 A 
ATOM      8  C   UNL d   1      45.519  16.425  16.484  0.00  0.00     0.085 A 
ATOM      9  C   UNL d   1      46.672  15.015  17.467  0.00  0.00     0.075 A 
ATOM     10  C   UNL d   1      46.146  14.742  16.610  0.00  0.00     0.071 A 
ATOM     11  C   UNL d   1      45.566  15.452  16.115  0.00  0.00     0.074 A 
ENDROOT
BRANCH   4  12
ATOM     12  C   UNL d   1      47.575  17.439  19.813  0.00  0.00     0.001 A 
ATOM     13  C   UNL d   1      48.025  18.330  19.867  0.00  0.00     0.054 A 
ATOM     14  C   UNL d   1      48.533  18.585  20.690  0.00  0.00     0.102 A 
ATOM     15  C   UNL d   1      48.590  17.948  21.459  0.00  0.00     0.099 A 
ATOM     16  C   UNL d   1      48.139  17.057  21.405  0.00  0.00     0.040 A 
ATOM     17  C   UNL d   1      47.632  16.802  20.582  0.00  0.00     0.017 A 
BRANCH  14  18
ATOM     18  O   UNL d   1      48.983  19.476  20.744  0.00  0.00    -0.353 OA
ATOM     19  C   UNL d   1      49.171  19.993  19.909  0.00  0.00     0.210 C 
ENDBRANCH  14  18
BRANCH  15  20
ATOM     20  O   UNL d   1      49.097  18.203  22.283  0.00  0.00    -0.358 OA
ATOM     21  H   UNL d   1      48.894  18.023  22.840  0.00  0.00     0.217 HD
ENDBRANCH  15  20
ENDBRANCH   4  12
BRANCH   8  22
ATOM     22  O   UNL d   1      44.965  17.114  16.018  0.00  0.00    -0.360 OA
ATOM     23  H   UNL d   1      45.212  17.664  15.874  0.00  0.00     0.217 HD
ENDBRANCH   8  22
BRANCH  10  24
ATOM     24  O   UNL d   1      46.199  13.805  16.264  0.00  0.00    -0.361 OA
ATOM     25  H   UNL d   1      45.995  13.335  16.613  0.00  0.00     0.217 HD
ENDBRANCH  10  24
TORSDOF 5
ENDMDL
MODEL 4
REMARK VINA RESULT:    -6.976      1.993      4.796
REMARK INTER + INTRA:          -6.505
REMARK INTER:                  -8.527
REMARK INTRA:                   2.022
REMARK UNBOUND:                 1.899
REMARK  5 active torsions:
REMARK  status: ('A' for Active; 'I' for Inactive)
REMARK    1  A    between atoms: O_2  and  C_13 
REMARK    2  A    between atoms: O_3  and  C_19 
REMARK    3  A    between atoms: O_5  and  C_17 
REMARK    4  A    between atoms: O_6  and  C_21 
REMARK    5  A    between atoms: C_8  and  C_10 
ROOT
ATOM      1  O   UNL d   1      46.848  19.135  18.518  0.00  0.00    -0.309 OA
ATOM      2  O   UNL d   1      46.582  16.629  16.891  0.00  0.00    -0.287 OA
ATOM      3  C   UNL d   1      46.275  18.320  17.101  0.00  0.00     0.081 A 
ATOM      4  C   UNL d   1      47.244  18.279  18.850  0.00  0.00     0.090 A 
ATOM      5  C   UNL d   1      46.363  19.156  17.644  0.00  0.00     0.095 A 
ATOM      6  C   UNL d   1      46.671  17.464  17.433  0.00  0.00     0.190 A 
ATOM      7  C   UNL d   1      47.155  17.444  18.308  0.00  0.00     0.094 A 
ATOM      8  C   UNL d   1      45.773  18.327  16.189  0.00  0.00     0.085 A 
ATOM      9  C   UNL d   1      45.956  20.055  17.311  0.00  0.00     0.075 A 
ATOM     10  C   UNL d   1      45.450  20.085  16.401  0.00  0.00     0.071 A 
ATOM     11  C   UNL d   1      45.357  19.215  15.837  0.00  0.00     0.074 A 
ENDROOT
BRANCH   4  12
ATOM     12  C   UNL d   1      47.728  18.258  19.725  0.00  0.00     0.001 A 
ATOM     13  C   UNL d   1      47.553  17.520  20.376  0.00  0.00     0.054 A 
ATOM     14  C   UNL d   1      48.037  17.500  21.251  0.00  0.00     0.102 A 
ATOM     15  C   UNL d   1      48.698  18.217  21.473  0.00  0.00     0.099 A 
ATOM     16  C   UNL d   1      48.874  18.954  20.822  0.00  0.00     0.040 A 
ATOM     17  C   UNL d   1      48.389  18.975  19.947  0.00  0.00     0.017 A 
BRANCH  14  18
ATOM     18  O   UNL d   1      47.861  16.762  21.902  0.00  0.00    -0.353 OA
ATOM     19  C   UNL d   1      47.048  16.189  21.801  0.00  0.00     0.210 C 
ENDBRANCH  14  18
BRANCH  15  20
ATOM     20  O   UNL d   1      49.182  18.196  22.348  0.00  0.00    -0.358 OA
ATOM     21  H   UNL d   1      49.570  18.656  22.498  0.00  0.00     0.217 HD
ENDBRANCH  15  20
ENDBRANCH   4  12
BRANCH   8  22
ATOM     22  O   UNL d   1      45.690  17.486  15.655  0.00  0.00    -0.360 OA
ATOM     23  H   UNL d   1      46.198  17.169  15.495  0.00  0.00     0.217 HD
ENDBRANCH   8  22
BRANCH  10  24
ATOM     24  O   UNL d   1      45.055  20.943  16.073  0.00  0.00    -0.361 OA
ATOM     25  H   UNL d   1      44.444  21.039  16.115  0.00  0.00     0.217 HD
ENDBRANCH  10  24
TORSDOF 5
ENDMDL
MODEL 5
REMARK VINA RESULT:    -6.732      1.601      5.382
REMARK INTER + INTRA:          -6.210
REMARK INTER:                  -8.340
REMARK INTRA:                   2.129
REMARK UNBOUND:                 1.899
REMARK  5 active torsions:
REMARK  status: ('A' for Active; 'I' for Inactive)
REMARK    1  A    between atoms: O_2  and  C_13 
REMARK    2  A    between atoms: O_3  and  C_19 
REMARK    3  A    between atoms: O_5  and  C_17 
REMARK    4  A    between atoms: O_6  and  C_21 
REMARK    5  A    between atoms: C_8  and  C_10 
ROOT
ATOM      1  O   UNL d   1      46.467  17.721  17.260  0.00  0.00    -0.309 OA
ATOM      2  O   UNL d   1      46.669  14.782  17.826  0.00  0.00    -0.287 OA
ATOM      3  C   UNL d   1      46.010  16.090  16.901  0.00  0.00     0.081 A 
ATOM      4  C   UNL d   1      47.058  17.394  17.996  0.00  0.00     0.090 A 
ATOM      5  C   UNL d   1      45.943  17.069  16.712  0.00  0.00     0.095 A 
ATOM      6  C   UNL d   1      46.602  15.762  17.637  0.00  0.00     0.190 A 
ATOM      7  C   UNL d   1      47.126  16.414  18.185  0.00  0.00     0.094 A 
ATOM      8  C   UNL d   1      45.471  15.399  16.338  0.00  0.00     0.085 A 
ATOM      9  C   UNL d   1      45.331  17.426  15.948  0.00  0.00     0.075 A 
ATOM     10  C   UNL d   1      44.782  16.753  15.373  0.00  0.00     0.071 A 
ATOM     11  C   UNL d   1      44.853  15.733  15.569  0.00  0.00     0.074 A 
ENDROOT
BRANCH   4  12
ATOM     12  C   UNL d   1      47.582  18.046  18.544  0.00  0.00     0.001 A 
ATOM     13  C   UNL d   1      47.704  17.891  19.525  0.00  0.00     0.054 A 
ATOM     14  C   UNL d   1      48.228  18.543  20.073  0.00  0.00     0.102 A 
ATOM     15  C   UNL d   1      48.630  19.350  19.640  0.00  0.00     0.099 A 
ATOM     16  C   UNL d   1      48.509  19.504  18.660  0.00  0.00     0.040 A 
ATOM     17  C   UNL d   1      47.985  18.852  18.112  0.00  0.00     0.017 A 
BRANCH  14  18
ATOM     18  O   UNL d   1      48.349  18.389  21.053  0.00  0.00    -0.353 OA
ATOM     19  C   UNL d   1      48.242  17.469  21.432  0.00  0.00     0.210 C 
ENDBRANCH  14  18
BRANCH  15  20
ATOM     20  O   UNL d   1      49.154  20.002  20.188  0.00  0.00    -0.358 OA
ATOM     21  H   UNL d   1      49.737  20.143  20.029  0.00  0.00     0.217 HD
ENDBRANCH  15  20
ENDBRANCH   4  12
BRANCH   8  22
ATOM     22  O   UNL d   1      45.546  14.422  16.536  0.00  0.00    -0.360 OA
ATOM     23  H   UNL d   1      46.102  14.169  16.644  0.00  0.00     0.217 HD
ENDBRANCH   8  22
BRANCH  10  24
ATOM     24  O   UNL d   1      44.192  17.085  14.637  0.00  0.00    -0.361 OA
ATOM     25  H   UNL d   1      43.620  17.287  14.766  0.00  0.00     0.217 HD
ENDBRANCH  10  24
TORSDOF 5
ENDMDL
