MODEL 1
REMARK VINA RESULT:    -7.506      0.000      0.000
REMARK INTER + INTRA:          -7.336
REMARK INTER:                  -8.399
REMARK INTRA:                   1.062
REMARK UNBOUND:                 1.048
REMARK  3 active torsions:
REMARK  status: ('A' for Active; 'I' for Inactive)
REMARK    1  A    between atoms: O_2  and  C_10 
REMARK    2  A    between atoms: O_4  and  C_13 
REMARK    3  A    between atoms: C_7  and  C_9 
ROOT
ATOM      1  O   UNL d   1      47.233  16.939  19.616  0.00  0.00    -0.309 OA
ATOM      2  O   UNL d   1      47.864  19.426  18.061  0.00  0.00    -0.287 OA
ATOM      3  C   UNL d   1      48.002  18.488  19.510  0.00  0.00     0.081 A 
ATOM      4  C   UNL d   1      47.792  17.659  20.029  0.00  0.00     0.095 A 
ATOM      5  C   UNL d   1      46.885  17.049  18.685  0.00  0.00     0.090 A 
ATOM      6  C   UNL d   1      47.653  18.597  18.579  0.00  0.00     0.190 A 
ATOM      7  C   UNL d   1      48.582  19.246  19.927  0.00  0.00     0.085 A 
ATOM      8  C   UNL d   1      47.095  17.877  18.167  0.00  0.00     0.094 A 
ATOM      9  C   UNL d   1      48.147  17.531  21.000  0.00  0.00     0.075 A 
ATOM     10  C   UNL d   1      48.729  18.276  21.436  0.00  0.00     0.071 A 
ATOM     11  C   UNL d   1      48.948  19.139  20.896  0.00  0.00     0.074 A 
ENDROOT
BRANCH   5  12
ATOM     12  C   UNL d   1      46.327  16.329  18.273  0.00  0.00    -0.002 A 
ATOM     13  C   UNL d   1      46.685  15.796  17.506  0.00  0.00     0.014 A 
ATOM     14  C   UNL d   1      46.126  15.076  17.094  0.00  0.00     0.001 A 
ATOM     15  C   UNL d   1      45.210  14.889  17.448  0.00  0.00     0.000 A 
ATOM     16  C   UNL d   1      44.852  15.422  18.214  0.00  0.00     0.001 A 
ATOM     17  C   UNL d   1      45.410  16.142  18.627  0.00  0.00     0.014 A 
ENDBRANCH   5  12
BRANCH   7  18
ATOM     18  O   UNL d   1      48.786  20.071  19.399  0.00  0.00    -0.360 OA
ATOM     19  H   UNL d   1      48.580  20.622  19.594  0.00  0.00     0.217 HD
ENDBRANCH   7  18
BRANCH  10  20
ATOM     20  O   UNL d   1      49.076  18.163  22.367  0.00  0.00    -0.361 OA
ATOM     21  H   UNL d   1      48.766  18.409  22.845  0.00  0.00     0.217 HD
ENDBRANCH  10  20
TORSDOF 3
ENDMDL
MODEL 2
REMARK VINA RESULT:    -7.488      0.986      2.079
REMARK INTER + INTRA:          -7.316
REMARK INTER:                  -8.634
REMARK INTRA:                   1.318
REMARK UNBOUND:                 1.048
REMARK  3 active torsions:
REMARK  status: ('A' for Active; 'I' for Inactive)
REMARK    1  A    between atoms: O_2  and  C_10 
REMARK    2  A    between atoms: O_4  and  C_13 
REMARK    3  A    between atoms: C_7  and  C_9 
ROOT
ATOM      1  O   UNL d   1      47.542  17.655  18.811  0.00  0.00    -0.309 OA
ATOM      2  O   UNL d   1      47.650  16.230  21.449  0.00  0.00    -0.287 OA
ATOM      3  C   UNL d   1      48.018  17.615  20.476  0.00  0.00     0.081 A 
ATOM      4  C   UNL d   1      47.982  18.090  19.597  0.00  0.00     0.095 A 
ATOM      5  C   UNL d   1      47.137  16.745  18.905  0.00  0.00     0.090 A 
ATOM      6  C   UNL d   1      47.614  16.705  20.569  0.00  0.00     0.190 A 
ATOM      7  C   UNL d   1      48.473  18.055  21.302  0.00  0.00     0.085 A 
ATOM      8  C   UNL d   1      47.173  16.270  19.784  0.00  0.00     0.094 A 
ATOM      9  C   UNL d   1      48.398  19.038  19.483  0.00  0.00     0.075 A 
ATOM     10  C   UNL d   1      48.859  19.497  20.297  0.00  0.00     0.071 A 
ATOM     11  C   UNL d   1      48.896  19.002  21.213  0.00  0.00     0.074 A 
ENDROOT
BRANCH   5  12
ATOM     12  C   UNL d   1      46.697  16.310  18.119  0.00  0.00    -0.002 A 
ATOM     13  C   UNL d   1      46.698  15.314  18.033  0.00  0.00     0.014 A 
ATOM     14  C   UNL d   1      46.258  14.879  17.248  0.00  0.00     0.001 A 
ATOM     15  C   UNL d   1      45.817  15.441  16.548  0.00  0.00     0.000 A 
ATOM     16  C   UNL d   1      45.816  16.437  16.634  0.00  0.00     0.001 A 
ATOM     17  C   UNL d   1      46.256  16.872  17.419  0.00  0.00     0.014 A 
ENDBRANCH   5  12
BRANCH   7  18
ATOM     18  O   UNL d   1      48.503  17.570  22.177  0.00  0.00    -0.360 OA
ATOM     19  H   UNL d   1      48.996  17.224  22.322  0.00  0.00     0.217 HD
ENDBRANCH   7  18
BRANCH  10  20
ATOM     20  O   UNL d   1      49.262  20.407  20.199  0.00  0.00    -0.361 OA
ATOM     21  H   UNL d   1      49.624  20.535  19.713  0.00  0.00     0.217 HD
ENDBRANCH  10  20
TORSDOF 3
ENDMDL
MODEL 3
REMARK VINA RESULT:    -6.932      1.965      2.930
REMARK INTER + INTRA:          -6.694
REMARK INTER:                  -7.754
REMARK INTRA:                   1.059
REMARK UNBOUND:                 1.048
REMARK  3 active torsions:
REMARK  status: ('A' for Active; 'I' for Inactive)
REMARK    1  A    between atoms: O_2  and  C_10 
REMARK    2  A    between atoms: O_4  and  C_13 
REMARK    3  A    between atoms: C_7  and  C_9 
ROOT
ATOM      1  O   UNL d   1      46.972  17.929  19.056  0.00  0.00    -0.309 OA
ATOM      2  O   UNL d   1      48.896  19.734  20.484  0.00  0.00    -0.287 OA
ATOM      3  C   UNL d   1      48.036  18.234  20.389  0.00  0.00     0.081 A 
ATOM      4  C   UNL d   1      47.395  17.632  19.913  0.00  0.00     0.095 A 
ATOM      5  C   UNL d   1      47.191  18.827  18.676  0.00  0.00     0.090 A 
ATOM      6  C   UNL d   1      48.255  19.132  20.008  0.00  0.00     0.190 A 
ATOM      7  C   UNL d   1      48.483  17.938  21.281  0.00  0.00     0.085 A 
ATOM      8  C   UNL d   1      47.832  19.429  19.152  0.00  0.00     0.094 A 
ATOM      9  C   UNL d   1      47.157  16.693  20.296  0.00  0.00     0.075 A 
ATOM     10  C   UNL d   1      47.593  16.377  21.188  0.00  0.00     0.071 A 
ATOM     11  C   UNL d   1      48.260  17.004  21.684  0.00  0.00     0.074 A 
ENDROOT
BRANCH   5  12
ATOM     12  C   UNL d   1      46.769  19.124  17.819  0.00  0.00    -0.002 A 
ATOM     13  C   UNL d   1      46.116  19.882  17.820  0.00  0.00     0.014 A 
ATOM     14  C   UNL d   1      45.693  20.178  16.964  0.00  0.00     0.001 A 
ATOM     15  C   UNL d   1      45.924  19.718  16.107  0.00  0.00     0.000 A 
ATOM     16  C   UNL d   1      46.577  18.960  16.106  0.00  0.00     0.001 A 
ATOM     17  C   UNL d   1      46.999  18.663  16.962  0.00  0.00     0.014 A 
ENDBRANCH   5  12
BRANCH   7  18
ATOM     18  O   UNL d   1      49.123  18.548  21.749  0.00  0.00    -0.360 OA
ATOM     19  H   UNL d   1      49.567  18.313  22.112  0.00  0.00     0.217 HD
ENDBRANCH   7  18
BRANCH  10  20
ATOM     20  O   UNL d   1      47.371  15.478  21.565  0.00  0.00    -0.361 OA
ATOM     21  H   UNL d   1      47.169  15.428  22.149  0.00  0.00     0.217 HD
ENDBRANCH  10  20
TORSDOF 3
ENDMDL
MODEL 4
REMARK VINA RESULT:    -6.434      1.370      2.656
REMARK INTER + INTRA:          -6.138
REMARK INTER:                  -7.378
REMARK INTRA:                   1.239
REMARK UNBOUND:                 1.048
REMARK  3 active torsions:
REMARK  status: ('A' for Active; 'I' for Inactive)
REMARK    1  A    between atoms: O_2  and  C_10 
REMARK    2  A    between atoms: O_4  and  C_13 
REMARK    3  A    between atoms: C_7  and  C_9 
ROOT
ATOM      1  O   UNL d   1      46.152  17.395  19.492  0.00  0.00    -0.309 OA
ATOM      2  O   UNL d   1      47.783  16.900  21.961  0.00  0.00    -0.287 OA
ATOM      3  C   UNL d   1      47.488  17.807  20.515  0.00  0.00     0.081 A 
ATOM      4  C   UNL d   1      46.944  17.972  19.692  0.00  0.00     0.095 A 
ATOM      5  C   UNL d   1      45.904  16.653  20.115  0.00  0.00     0.090 A 
ATOM      6  C   UNL d   1      47.239  17.065  21.138  0.00  0.00     0.190 A 
ATOM      7  C   UNL d   1      48.315  18.399  20.737  0.00  0.00     0.085 A 
ATOM      8  C   UNL d   1      46.448  16.488  20.938  0.00  0.00     0.094 A 
ATOM      9  C   UNL d   1      47.190  18.741  19.034  0.00  0.00     0.075 A 
ATOM     10  C   UNL d   1      48.013  19.346  19.236  0.00  0.00     0.071 A 
ATOM     11  C   UNL d   1      48.579  19.174  20.093  0.00  0.00     0.074 A 
ENDROOT
BRANCH   5  12
ATOM     12  C   UNL d   1      45.112  16.076  19.915  0.00  0.00    -0.002 A 
ATOM     13  C   UNL d   1      44.492  15.805  20.651  0.00  0.00     0.014 A 
ATOM     14  C   UNL d   1      43.700  15.228  20.451  0.00  0.00     0.001 A 
ATOM     15  C   UNL d   1      43.529  14.921  19.515  0.00  0.00     0.000 A 
ATOM     16  C   UNL d   1      44.149  15.192  18.778  0.00  0.00     0.001 A 
ATOM     17  C   UNL d   1      44.941  15.769  18.979  0.00  0.00     0.014 A 
ENDBRANCH   5  12
BRANCH   7  18
ATOM     18  O   UNL d   1      48.851  18.225  21.562  0.00  0.00    -0.360 OA
ATOM     19  H   UNL d   1      49.356  17.868  21.534  0.00  0.00     0.217 HD
ENDBRANCH   7  18
BRANCH  10  20
ATOM     20  O   UNL d   1      48.258  20.087  18.610  0.00  0.00    -0.361 OA
ATOM     21  H   UNL d   1      47.935  20.616  18.616  0.00  0.00     0.217 HD
ENDBRANCH  10  20
TORSDOF 3
ENDMDL
MODEL 5
REMARK VINA RESULT:    -6.253      8.610     10.505
REMARK INTER + INTRA:          -5.936
REMARK INTER:                  -6.954
REMARK INTRA:                   1.018
REMARK UNBOUND:                 1.048
REMARK  3 active torsions:
REMARK  status: ('A' for Active; 'I' for Inactive)
REMARK    1  A    between atoms: O_2  and  C_10 
REMARK    2  A    between atoms: O_4  and  C_13 
REMARK    3  A    between atoms: C_7  and  C_9 
ROOT
ATOM      1  O   UNL d   1      45.274  16.402  27.842  0.00  0.00    -0.309 OA
ATOM      2  O   UNL d   1      42.550  16.465  29.098  0.00  0.00    -0.287 OA
ATOM      3  C   UNL d   1      43.654  15.795  27.944  0.00  0.00     0.081 A 
ATOM      4  C   UNL d   1      44.562  15.774  27.525  0.00  0.00     0.095 A 
ATOM      5  C   UNL d   1      45.077  17.050  28.577  0.00  0.00     0.090 A 
ATOM      6  C   UNL d   1      43.458  16.444  28.679  0.00  0.00     0.190 A 
ATOM      7  C   UNL d   1      42.904  15.148  27.625  0.00  0.00     0.085 A 
ATOM      8  C   UNL d   1      44.169  17.071  28.996  0.00  0.00     0.094 A 
ATOM      9  C   UNL d   1      44.782  15.104  26.758  0.00  0.00     0.075 A 
ATOM     10  C   UNL d   1      44.046  14.447  26.423  0.00  0.00     0.071 A 
ATOM     11  C   UNL d   1      43.101  14.469  26.859  0.00  0.00     0.074 A 
ENDROOT
BRANCH   5  12
ATOM     12  C   UNL d   1      45.788  17.678  28.894  0.00  0.00    -0.002 A 
ATOM     13  C   UNL d   1      46.516  17.347  29.495  0.00  0.00     0.014 A 
ATOM     14  C   UNL d   1      47.227  17.974  29.811  0.00  0.00     0.001 A 
ATOM     15  C   UNL d   1      47.211  18.933  29.527  0.00  0.00     0.000 A 
ATOM     16  C   UNL d   1      46.484  19.264  28.925  0.00  0.00     0.001 A 
ATOM     17  C   UNL d   1      45.773  18.636  28.609  0.00  0.00     0.014 A 
ENDBRANCH   5  12
BRANCH   7  18
ATOM     18  O   UNL d   1      42.000  15.178  28.051  0.00  0.00    -0.360 OA
ATOM     19  H   UNL d   1      41.515  14.915  27.767  0.00  0.00     0.217 HD
ENDBRANCH   7  18
BRANCH  10  20
ATOM     20  O   UNL d   1      44.247  13.800  25.687  0.00  0.00    -0.361 OA
ATOM     21  H   UNL d   1      43.811  13.403  25.497  0.00  0.00     0.217 HD
ENDBRANCH  10  20
TORSDOF 3
ENDMDL
