MODEL 1
REMARK VINA RESULT:   -11.168      0.000      0.000
REMARK INTER + INTRA:         -12.439
REMARK INTER:                 -13.827
REMARK INTRA:                   1.388
REMARK UNBOUND:                 1.340
REMARK  6 active torsions:
REMARK  status: ('A' for Active; 'I' for Inactive)
REMARK    1  A    between atoms: C_22  and  O_1 
REMARK    2  A    between atoms: C_24  and  O_2 
REMARK    3  A    between atoms: O_3  and  C_30 
REMARK    4  A    between atoms: O_4  and  C_33 
REMARK    5  A    between atoms: C_14  and  C_30 
REMARK    6  A    between atoms: C_19  and  C_33 
ROOT
ATOM      1  C   UNL d   1      25.267  22.962  35.660  0.00  0.00    -0.028 A 
ATOM      2  C   UNL d   1      25.453  21.984  35.752  0.00  0.00     0.007 A 
ATOM      3  C   UNL d   1      24.709  21.325  36.064  0.00  0.00    -0.033 A 
ATOM      4  C   UNL d   1      25.991  23.583  35.359  0.00  0.00    -0.013 A 
ATOM      5  C   UNL d   1      23.759  21.689  36.283  0.00  0.00     0.007 A 
ATOM      6  C   UNL d   1      24.324  23.348  35.873  0.00  0.00     0.011 A 
ATOM      7  C   UNL d   1      26.901  23.226  35.150  0.00  0.00    -0.069 A 
ATOM      8  C   UNL d   1      23.565  22.708  36.187  0.00  0.00     0.007 A 
ATOM      9  C   UNL d   1      22.968  21.021  36.610  0.00  0.00     0.010 A 
ATOM     10  C   UNL d   1      27.665  23.860  34.836  0.00  0.00     0.038 A 
ATOM     11  C   UNL d   1      26.364  21.627  35.543  0.00  0.00     0.033 A 
ATOM     12  C   UNL d   1      24.935  20.267  36.156  0.00  0.00     0.044 A 
ATOM     13  C   UNL d   1      25.781  24.599  35.268  0.00  0.00     0.016 A 
ATOM     14  C   UNL d   1      27.478  24.880  34.738  0.00  0.00     0.053 A 
ATOM     15  C   UNL d   1      24.769  23.829  35.674  0.00  0.00     0.016 C 
ATOM     16  C   UNL d   1      26.530  25.252  34.955  0.00  0.00     0.022 A 
ATOM     17  C   UNL d   1      23.170  19.961  36.710  0.00  0.00     0.157 A 
ATOM     18  C   UNL d   1      27.088  22.248  35.242  0.00  0.00    -0.022 A 
ATOM     19  C   UNL d   1      24.161  19.581  36.481  0.00  0.00     0.148 A 
ATOM     20  C   UNL d   1      25.622  20.975  35.853  0.00  0.00     0.016 C 
ATOM     21  C   UNL d   1      25.241  24.234  35.478  0.00  0.00     0.021 C 
ATOM     22  C   UNL d   1      28.644  23.450  34.615  0.00  0.00    -0.005 A 
ATOM     23  C   UNL d   1      28.258  25.560  34.412  0.00  0.00     0.021 A 
ATOM     24  C   UNL d   1      29.440  24.110  34.288  0.00  0.00    -0.014 A 
ATOM     25  C   UNL d   1      22.338  21.795  36.676  0.00  0.00     0.020 C 
ATOM     26  C   UNL d   1      29.246  25.173  34.185  0.00  0.00     0.006 A 
ATOM     27  C   UNL d   1      28.813  22.468  34.713  0.00  0.00     0.011 C 
ATOM     28  C   UNL d   1      30.347  23.742  34.082  0.00  0.00     0.010 C 
ENDROOT
BRANCH   9  29
ATOM     29  C   UNL d   1      22.024  20.874  36.904  0.00  0.00     0.176 C 
BRANCH  29  30
ATOM     30  O   UNL d   1      21.620  21.461  37.605  0.00  0.00    -0.400 OA
ATOM     31  H   UNL d   1      21.049  21.688  37.527  0.00  0.00     0.209 HD
ENDBRANCH  29  30
ENDBRANCH   9  29
BRANCH  17  32
ATOM     32  O   UNL d   1      22.450  19.337  37.010  0.00  0.00    -0.392 OA
ATOM     33  H   UNL d   1      22.362  19.232  37.615  0.00  0.00     0.210 HD
ENDBRANCH  17  32
BRANCH  19  34
ATOM     34  O   UNL d   1      24.358  18.605  36.570  0.00  0.00    -0.393 OA
ATOM     35  H   UNL d   1      23.895  18.193  36.564  0.00  0.00     0.210 HD
ENDBRANCH  19  34
BRANCH  14  36
ATOM     36  C   UNL d   1      27.299  25.859  34.643  0.00  0.00     0.149 C 
ATOM     37  O   UNL d   1      27.044  26.236  33.753  0.00  0.00    -0.649 OA
BRANCH  36  38
ATOM     38  O   UNL d   1      27.376  26.461  35.438  0.00  0.00    -0.776 OA
ATOM     39  H   UNL d   1      27.054  26.337  35.953  0.00  0.00     0.167 HD
ENDBRANCH  36  38
ENDBRANCH  14  36
TORSDOF 6
ENDMDL
MODEL 2
REMARK VINA RESULT:   -11.077     20.994     24.008
REMARK INTER + INTRA:         -12.328
REMARK INTER:                 -13.658
REMARK INTRA:                   1.330
REMARK UNBOUND:                 1.340
REMARK  6 active torsions:
REMARK  status: ('A' for Active; 'I' for Inactive)
REMARK    1  A    between atoms: C_22  and  O_1 
REMARK    2  A    between atoms: C_24  and  O_2 
REMARK    3  A    between atoms: O_3  and  C_30 
REMARK    4  A    between atoms: O_4  and  C_33 
REMARK    5  A    between atoms: C_14  and  C_30 
REMARK    6  A    between atoms: C_19  and  C_33 
ROOT
ATOM      1  C   UNL d   1      30.930  43.153  45.063  0.00  0.00    -0.028 A 
ATOM      2  C   UNL d   1      31.103  43.711  44.251  0.00  0.00     0.007 A 
ATOM      3  C   UNL d   1      31.634  43.327  43.441  0.00  0.00    -0.033 A 
ATOM      4  C   UNL d   1      30.419  43.534  45.833  0.00  0.00    -0.013 A 
ATOM      5  C   UNL d   1      31.990  42.349  43.477  0.00  0.00     0.007 A 
ATOM      6  C   UNL d   1      31.276  42.172  45.120  0.00  0.00     0.011 A 
ATOM      7  C   UNL d   1      30.080  44.474  45.791  0.00  0.00    -0.069 A 
ATOM      8  C   UNL d   1      31.810  41.768  44.322  0.00  0.00     0.007 A 
ATOM      9  C   UNL d   1      32.546  41.928  42.646  0.00  0.00     0.010 A 
ATOM     10  C   UNL d   1      29.546  44.886  46.585  0.00  0.00     0.038 A 
ATOM     11  C   UNL d   1      30.764  44.651  44.210  0.00  0.00     0.033 A 
ATOM     12  C   UNL d   1      31.809  43.952  42.572  0.00  0.00     0.044 A 
ATOM     13  C   UNL d   1      30.247  42.940  46.671  0.00  0.00     0.016 A 
ATOM     14  C   UNL d   1      29.362  44.310  47.434  0.00  0.00     0.053 A 
ATOM     15  C   UNL d   1      30.935  42.367  45.681  0.00  0.00     0.016 C 
ATOM     16  C   UNL d   1      29.715  43.331  47.477  0.00  0.00     0.022 A 
ATOM     17  C   UNL d   1      32.733  42.533  41.766  0.00  0.00     0.157 A 
ATOM     18  C   UNL d   1      30.253  45.033  44.980  0.00  0.00    -0.022 A 
ATOM     19  C   UNL d   1      32.363  43.552  41.728  0.00  0.00     0.148 A 
ATOM     20  C   UNL d   1      31.292  44.266  43.407  0.00  0.00     0.016 C 
ATOM     21  C   UNL d   1      30.602  42.616  46.184  0.00  0.00     0.021 C 
ATOM     22  C   UNL d   1      29.189  45.908  46.517  0.00  0.00    -0.005 A 
ATOM     23  C   UNL d   1      28.808  44.717  48.273  0.00  0.00     0.021 A 
ATOM     24  C   UNL d   1      28.632  46.336  47.344  0.00  0.00    -0.014 A 
ATOM     25  C   UNL d   1      32.639  41.064  43.142  0.00  0.00     0.020 C 
ATOM     26  C   UNL d   1      28.440  45.737  48.228  0.00  0.00     0.006 A 
ATOM     27  C   UNL d   1      29.371  46.452  45.697  0.00  0.00     0.011 C 
ATOM     28  C   UNL d   1      28.298  47.277  47.292  0.00  0.00     0.010 C 
ENDROOT
BRANCH   9  29
ATOM     29  C   UNL d   1      33.035  41.163  42.229  0.00  0.00     0.176 C 
BRANCH  29  30
ATOM     30  O   UNL d   1      32.724  40.225  42.383  0.00  0.00    -0.400 OA
ATOM     31  H   UNL d   1      32.275  39.986  42.030  0.00  0.00     0.209 HD
ENDBRANCH  29  30
ENDBRANCH   9  29
BRANCH  17  32
ATOM     32  O   UNL d   1      33.244  42.156  40.994  0.00  0.00    -0.392 OA
ATOM     33  H   UNL d   1      33.598  41.652  41.072  0.00  0.00     0.210 HD
ENDBRANCH  17  32
BRANCH  19  34
ATOM     34  O   UNL d   1      32.530  44.120  40.922  0.00  0.00    -0.393 OA
ATOM     35  H   UNL d   1      32.878  44.630  40.969  0.00  0.00     0.210 HD
ENDBRANCH  19  34
BRANCH  14  36
ATOM     36  C   UNL d   1      29.185  43.758  48.248  0.00  0.00     0.149 C 
ATOM     37  O   UNL d   1      28.331  43.244  48.327  0.00  0.00    -0.649 OA
BRANCH  36  38
ATOM     38  O   UNL d   1      29.861  43.720  48.983  0.00  0.00    -0.776 OA
ATOM     39  H   UNL d   1      29.692  43.843  49.567  0.00  0.00     0.167 HD
ENDBRANCH  36  38
ENDBRANCH  14  36
TORSDOF 6
ENDMDL
MODEL 3
REMARK VINA RESULT:   -10.904     18.755     20.312
REMARK INTER + INTRA:         -12.114
REMARK INTER:                 -13.463
REMARK INTRA:                   1.349
REMARK UNBOUND:                 1.340
REMARK  6 active torsions:
REMARK  status: ('A' for Active; 'I' for Inactive)
REMARK    1  A    between atoms: C_22  and  O_1 
REMARK    2  A    between atoms: C_24  and  O_2 
REMARK    3  A    between atoms: O_3  and  C_30 
REMARK    4  A    between atoms: O_4  and  C_33 
REMARK    5  A    between atoms: C_14  and  C_30 
REMARK    6  A    between atoms: C_19  and  C_33 
ROOT
ATOM      1  C   UNL d   1      30.855   8.035  22.898  0.00  0.00    -0.028 A 
ATOM      2  C   UNL d   1      31.409   7.970  22.068  0.00  0.00     0.007 A 
ATOM      3  C   UNL d   1      31.252   7.205  21.379  0.00  0.00    -0.033 A 
ATOM      4  C   UNL d   1      31.016   8.775  23.550  0.00  0.00    -0.013 A 
ATOM      5  C   UNL d   1      30.510   6.497  21.557  0.00  0.00     0.007 A 
ATOM      6  C   UNL d   1      30.107   7.338  23.097  0.00  0.00     0.011 A 
ATOM      7  C   UNL d   1      31.731   9.452  23.372  0.00  0.00    -0.069 A 
ATOM      8  C   UNL d   1      29.933   6.564  22.422  0.00  0.00     0.007 A 
ATOM      9  C   UNL d   1      30.328   5.690  20.854  0.00  0.00     0.010 A 
ATOM     10  C   UNL d   1      31.911  10.229  24.042  0.00  0.00     0.038 A 
ATOM     11  C   UNL d   1      32.123   8.647  21.890  0.00  0.00     0.033 A 
ATOM     12  C   UNL d   1      31.865   7.155  20.485  0.00  0.00     0.044 A 
ATOM     13  C   UNL d   1      30.431   8.829  24.411  0.00  0.00     0.016 A 
ATOM     14  C   UNL d   1      31.339  10.302  24.909  0.00  0.00     0.053 A 
ATOM     15  C   UNL d   1      30.162   7.816  23.585  0.00  0.00     0.016 C 
ATOM     16  C   UNL d   1      30.594   9.598  25.095  0.00  0.00     0.022 A 
ATOM     17  C   UNL d   1      30.929   5.620  19.954  0.00  0.00     0.157 A 
ATOM     18  C   UNL d   1      32.285   9.387  22.542  0.00  0.00    -0.022 A 
ATOM     19  C   UNL d   1      31.702   6.358  19.768  0.00  0.00     0.148 A 
ATOM     20  C   UNL d   1      31.965   7.885  21.208  0.00  0.00     0.016 C 
ATOM     21  C   UNL d   1      30.267   8.299  24.010  0.00  0.00     0.021 C 
ATOM     22  C   UNL d   1      32.692  10.950  23.828  0.00  0.00    -0.005 A 
ATOM     23  C   UNL d   1      31.507  11.103  25.622  0.00  0.00     0.021 A 
ATOM     24  C   UNL d   1      32.879  11.760  24.526  0.00  0.00    -0.014 A 
ATOM     25  C   UNL d   1      29.597   5.340  21.439  0.00  0.00     0.020 C 
ATOM     26  C   UNL d   1      32.283  11.837  25.429  0.00  0.00     0.006 A 
ATOM     27  C   UNL d   1      33.236  10.870  22.992  0.00  0.00     0.011 C 
ATOM     28  C   UNL d   1      33.597  12.430  24.337  0.00  0.00     0.010 C 
ENDROOT
BRANCH   9  29
ATOM     29  C   UNL d   1      29.820   4.873  20.584  0.00  0.00     0.176 C 
BRANCH  29  30
ATOM     30  O   UNL d   1      28.827   4.840  20.698  0.00  0.00    -0.400 OA
ATOM     31  H   UNL d   1      28.574   4.971  21.248  0.00  0.00     0.209 HD
ENDBRANCH  29  30
ENDBRANCH   9  29
BRANCH  17  32
ATOM     32  O   UNL d   1      30.770   4.881  19.299  0.00  0.00    -0.392 OA
ATOM     33  H   UNL d   1      30.353   4.952  18.846  0.00  0.00     0.210 HD
ENDBRANCH  17  32
BRANCH  19  34
ATOM     34  O   UNL d   1      32.262   6.303  18.941  0.00  0.00    -0.393 OA
ATOM     35  H   UNL d   1      32.624   6.779  18.779  0.00  0.00     0.210 HD
ENDBRANCH  19  34
BRANCH  14  36
ATOM     36  C   UNL d   1      30.789  10.373  25.742  0.00  0.00     0.149 C 
ATOM     37  O   UNL d   1      31.068   9.883  26.567  0.00  0.00    -0.649 OA
BRANCH  36  38
ATOM     38  O   UNL d   1      29.962  10.934  25.749  0.00  0.00    -0.776 OA
ATOM     39  H   UNL d   1      29.405  10.664  25.771  0.00  0.00     0.167 HD
ENDBRANCH  36  38
ENDBRANCH  14  36
TORSDOF 6
ENDMDL
MODEL 4
REMARK VINA RESULT:   -10.860     20.716     23.696
REMARK INTER + INTRA:         -12.059
REMARK INTER:                 -13.375
REMARK INTRA:                   1.316
REMARK UNBOUND:                 1.340
REMARK  6 active torsions:
REMARK  status: ('A' for Active; 'I' for Inactive)
REMARK    1  A    between atoms: C_22  and  O_1 
REMARK    2  A    between atoms: C_24  and  O_2 
REMARK    3  A    between atoms: O_3  and  C_30 
REMARK    4  A    between atoms: O_4  and  C_33 
REMARK    5  A    between atoms: C_14  and  C_30 
REMARK    6  A    between atoms: C_19  and  C_33 
ROOT
ATOM      1  C   UNL d   1      31.999  44.288  41.223  0.00  0.00    -0.028 A 
ATOM      2  C   UNL d   1      31.724  44.141  42.173  0.00  0.00     0.007 A 
ATOM      3  C   UNL d   1      31.951  43.251  42.664  0.00  0.00    -0.033 A 
ATOM      4  C   UNL d   1      31.774  45.147  40.764  0.00  0.00    -0.013 A 
ATOM      5  C   UNL d   1      32.471  42.504  42.159  0.00  0.00     0.007 A 
ATOM      6  C   UNL d   1      32.520  43.555  40.698  0.00  0.00     0.011 A 
ATOM      7  C   UNL d   1      31.274  45.860  41.256  0.00  0.00    -0.069 A 
ATOM      8  C   UNL d   1      32.758  42.656  41.169  0.00  0.00     0.007 A 
ATOM      9  C   UNL d   1      32.719  41.568  42.650  0.00  0.00     0.010 A 
ATOM     10  C   UNL d   1      31.032  46.761  40.792  0.00  0.00     0.038 A 
ATOM     11  C   UNL d   1      31.224  44.854  42.665  0.00  0.00     0.033 A 
ATOM     12  C   UNL d   1      31.643  43.114  43.695  0.00  0.00     0.044 A 
ATOM     13  C   UNL d   1      32.067  45.285  39.774  0.00  0.00     0.016 A 
ATOM     14  C   UNL d   1      31.316  46.921  39.802  0.00  0.00     0.053 A 
ATOM     15  C   UNL d   1      32.400  44.115  40.323  0.00  0.00     0.016 C 
ATOM     16  C   UNL d   1      31.836  46.178  39.290  0.00  0.00     0.022 A 
ATOM     17  C   UNL d   1      32.421  41.409  43.680  0.00  0.00     0.157 A 
ATOM     18  C   UNL d   1      30.999  45.714  42.206  0.00  0.00    -0.022 A 
ATOM     19  C   UNL d   1      31.879  42.187  44.207  0.00  0.00     0.148 A 
ATOM     20  C   UNL d   1      31.452  43.968  43.149  0.00  0.00     0.016 C 
ATOM     21  C   UNL d   1      32.254  44.676  40.024  0.00  0.00     0.021 C 
ATOM     22  C   UNL d   1      30.490  47.520  41.345  0.00  0.00    -0.005 A 
ATOM     23  C   UNL d   1      31.075  47.851  39.297  0.00  0.00     0.021 A 
ATOM     24  C   UNL d   1      30.238  48.458  40.862  0.00  0.00    -0.014 A 
ATOM     25  C   UNL d   1      33.166  41.245  41.815  0.00  0.00     0.020 C 
ATOM     26  C   UNL d   1      30.533  48.625  39.831  0.00  0.00     0.006 A 
ATOM     27  C   UNL d   1      30.223  47.356  42.295  0.00  0.00     0.011 C 
ATOM     28  C   UNL d   1      29.738  49.164  41.363  0.00  0.00     0.010 C 
ENDROOT
BRANCH   9  29
ATOM     29  C   UNL d   1      33.139  40.661  42.626  0.00  0.00     0.176 C 
BRANCH  29  30
ATOM     30  O   UNL d   1      33.168  40.144  41.771  0.00  0.00    -0.400 OA
ATOM     31  H   UNL d   1      32.778  40.286  41.310  0.00  0.00     0.209 HD
ENDBRANCH  29  30
ENDBRANCH   9  29
BRANCH  17  32
ATOM     32  O   UNL d   1      32.644  40.551  44.142  0.00  0.00    -0.392 OA
ATOM     33  H   UNL d   1      33.172  40.254  44.009  0.00  0.00     0.210 HD
ENDBRANCH  17  32
BRANCH  19  34
ATOM     34  O   UNL d   1      31.599  42.051  45.157  0.00  0.00    -0.393 OA
ATOM     35  H   UNL d   1      31.113  42.361  45.385  0.00  0.00     0.210 HD
ENDBRANCH  19  34
BRANCH  14  36
ATOM     36  C   UNL d   1      31.587  47.075  38.852  0.00  0.00     0.149 C 
ATOM     37  O   UNL d   1      32.470  47.498  38.648  0.00  0.00    -0.649 OA
BRANCH  36  38
ATOM     38  O   UNL d   1      30.977  46.806  38.107  0.00  0.00    -0.776 OA
ATOM     39  H   UNL d   1      30.787  46.218  38.059  0.00  0.00     0.167 HD
ENDBRANCH  36  38
ENDBRANCH  14  36
TORSDOF 6
ENDMDL
MODEL 5
REMARK VINA RESULT:   -10.790     19.706     21.777
REMARK INTER + INTRA:         -11.973
REMARK INTER:                 -13.353
REMARK INTRA:                   1.380
REMARK UNBOUND:                 1.340
REMARK  6 active torsions:
REMARK  status: ('A' for Active; 'I' for Inactive)
REMARK    1  A    between atoms: C_22  and  O_1 
REMARK    2  A    between atoms: C_24  and  O_2 
REMARK    3  A    between atoms: O_3  and  C_30 
REMARK    4  A    between atoms: O_4  and  C_33 
REMARK    5  A    between atoms: C_14  and  C_30 
REMARK    6  A    between atoms: C_19  and  C_33 
ROOT
ATOM      1  C   UNL d   1      38.088  29.183  19.679  0.00  0.00    -0.028 A 
ATOM      2  C   UNL d   1      38.495  29.384  18.788  0.00  0.00     0.007 A 
ATOM      3  C   UNL d   1      38.134  28.933  17.921  0.00  0.00    -0.033 A 
ATOM      4  C   UNL d   1      38.445  29.623  20.503  0.00  0.00    -0.013 A 
ATOM      5  C   UNL d   1      37.339  28.263  17.983  0.00  0.00     0.007 A 
ATOM      6  C   UNL d   1      37.293  28.516  19.765  0.00  0.00     0.011 A 
ATOM      7  C   UNL d   1      39.208  30.266  20.435  0.00  0.00    -0.069 A 
ATOM      8  C   UNL d   1      36.916  28.053  18.911  0.00  0.00     0.007 A 
ATOM      9  C   UNL d   1      36.947  27.781  17.093  0.00  0.00     0.010 A 
ATOM     10  C   UNL d   1      39.591  30.733  21.284  0.00  0.00     0.038 A 
ATOM     11  C   UNL d   1      39.258  30.027  18.721  0.00  0.00     0.033 A 
ATOM     12  C   UNL d   1      38.591  29.168  16.965  0.00  0.00     0.044 A 
ATOM     13  C   UNL d   1      38.010  29.403  21.424  0.00  0.00     0.016 A 
ATOM     14  C   UNL d   1      39.172  30.527  22.216  0.00  0.00     0.053 A 
ATOM     15  C   UNL d   1      37.485  28.779  20.367  0.00  0.00     0.016 C 
ATOM     16  C   UNL d   1      38.377  29.858  22.286  0.00  0.00     0.022 A 
ATOM     17  C   UNL d   1      37.387  28.000  16.127  0.00  0.00     0.157 A 
ATOM     18  C   UNL d   1      39.615  30.468  19.544  0.00  0.00    -0.022 A 
ATOM     19  C   UNL d   1      38.215  28.698  16.062  0.00  0.00     0.148 A 
ATOM     20  C   UNL d   1      38.897  29.577  17.862  0.00  0.00     0.016 C 
ATOM     21  C   UNL d   1      37.717  29.066  20.904  0.00  0.00     0.021 C 
ATOM     22  C   UNL d   1      40.419  31.426  21.187  0.00  0.00    -0.005 A 
ATOM     23  C   UNL d   1      39.553  31.001  23.115  0.00  0.00     0.021 A 
ATOM     24  C   UNL d   1      40.817  31.912  22.071  0.00  0.00    -0.014 A 
ATOM     25  C   UNL d   1      36.273  27.295  17.650  0.00  0.00     0.020 C 
ATOM     26  C   UNL d   1      40.382  31.698  23.042  0.00  0.00     0.006 A 
ATOM     27  C   UNL d   1      40.814  31.616  20.287  0.00  0.00     0.011 C 
ATOM     28  C   UNL d   1      41.581  32.553  21.992  0.00  0.00     0.010 C 
ENDROOT
BRANCH   9  29
ATOM     29  C   UNL d   1      36.298  27.155  16.661  0.00  0.00     0.176 C 
BRANCH  29  30
ATOM     30  O   UNL d   1      35.425  26.953  17.104  0.00  0.00    -0.400 OA
ATOM     31  H   UNL d   1      35.415  26.663  17.651  0.00  0.00     0.209 HD
ENDBRANCH  29  30
ENDBRANCH   9  29
BRANCH  17  32
ATOM     32  O   UNL d   1      37.034  27.561  15.301  0.00  0.00    -0.392 OA
ATOM     33  H   UNL d   1      36.755  27.009  15.338  0.00  0.00     0.210 HD
ENDBRANCH  17  32
BRANCH  19  34
ATOM     34  O   UNL d   1      38.630  28.907  15.177  0.00  0.00    -0.393 OA
ATOM     35  H   UNL d   1      38.505  29.445  14.895  0.00  0.00     0.210 HD
ENDBRANCH  19  34
BRANCH  14  36
ATOM     36  C   UNL d   1      38.771  30.330  23.110  0.00  0.00     0.149 C 
ATOM     37  O   UNL d   1      38.125  30.975  23.520  0.00  0.00    -0.649 OA
BRANCH  36  38
ATOM     38  O   UNL d   1      39.015  29.491  23.595  0.00  0.00    -0.776 OA
ATOM     39  H   UNL d   1      38.619  29.242  24.002  0.00  0.00     0.167 HD
ENDBRANCH  36  38
ENDBRANCH  14  36
TORSDOF 6
ENDMDL
