MODEL 1
REMARK VINA RESULT:    -8.020      0.000      0.000
REMARK INTER + INTRA:          -7.688
REMARK INTER:                  -9.938
REMARK INTRA:                   2.251
REMARK UNBOUND:                 1.973
REMARK  5 active torsions:
REMARK  status: ('A' for Active; 'I' for Inactive)
REMARK    1  A    between atoms: O_2  and  C_13 
REMARK    2  A    between atoms: O_3  and  C_19 
REMARK    3  A    between atoms: O_5  and  C_17 
REMARK    4  A    between atoms: O_6  and  C_21 
REMARK    5  A    between atoms: C_8  and  C_10 
ROOT
ATOM      1  O   UNL d   1      11.863   2.103   2.066  0.00  0.00    -0.309 OA
ATOM      2  O   UNL d   1       8.938   2.306   1.433  0.00  0.00    -0.287 OA
ATOM      3  C   UNL d   1      10.389   3.012   2.062  0.00  0.00     0.081 A 
ATOM      4  C   UNL d   1      11.388   1.330   1.647  0.00  0.00     0.090 A 
ATOM      5  C   UNL d   1      11.364   2.945   2.273  0.00  0.00     0.095 A 
ATOM      6  C   UNL d   1       9.913   2.238   1.644  0.00  0.00     0.190 A 
ATOM      7  C   UNL d   1      10.412   1.397   1.437  0.00  0.00     0.094 A 
ATOM      8  C   UNL d   1       9.856   3.882   2.272  0.00  0.00     0.085 A 
ATOM      9  C   UNL d   1      11.873   3.742   2.709  0.00  0.00     0.075 A 
ATOM     10  C   UNL d   1      11.360   4.621   2.928  0.00  0.00     0.071 A 
ATOM     11  C   UNL d   1      10.345   4.692   2.708  0.00  0.00     0.074 A 
ENDROOT
BRANCH   4  12
ATOM     12  C   UNL d   1      11.887   0.489   1.440  0.00  0.00     0.001 A 
ATOM     13  C   UNL d   1      12.885   0.503   1.373  0.00  0.00     0.054 A 
ATOM     14  C   UNL d   1      13.384  -0.338   1.166  0.00  0.00     0.102 A 
ATOM     15  C   UNL d   1      12.886  -1.194   1.025  0.00  0.00     0.099 A 
ATOM     16  C   UNL d   1      11.888  -1.208   1.093  0.00  0.00     0.040 A 
ATOM     17  C   UNL d   1      11.389  -0.367   1.300  0.00  0.00     0.017 A 
BRANCH  14  18
ATOM     18  O   UNL d   1      14.382  -0.324   1.098  0.00  0.00    -0.353 OA
ATOM     19  C   UNL d   1      14.912   0.307   1.665  0.00  0.00     0.210 C 
ENDBRANCH  14  18
BRANCH  15  20
ATOM     20  O   UNL d   1      13.385  -2.035   0.818  0.00  0.00    -0.358 OA
ATOM     21  H   UNL d   1      13.112  -2.485   0.491  0.00  0.00     0.217 HD
ENDBRANCH  15  20
ENDBRANCH   4  12
BRANCH   8  22
ATOM     22  O   UNL d   1       8.881   3.938   2.057  0.00  0.00    -0.360 OA
ATOM     23  H   UNL d   1       8.671   4.387   1.685  0.00  0.00     0.217 HD
ENDBRANCH   8  22
BRANCH  10  24
ATOM     24  O   UNL d   1      11.839   5.393   3.346  0.00  0.00    -0.361 OA
ATOM     25  H   UNL d   1      11.537   5.923   3.457  0.00  0.00     0.217 HD
ENDBRANCH  10  24
TORSDOF 5
ENDMDL
MODEL 2
REMARK VINA RESULT:    -7.800      2.688      4.210
REMARK INTER + INTRA:          -7.423
REMARK INTER:                  -9.373
REMARK INTRA:                   1.950
REMARK UNBOUND:                 1.973
REMARK  5 active torsions:
REMARK  status: ('A' for Active; 'I' for Inactive)
REMARK    1  A    between atoms: O_2  and  C_13 
REMARK    2  A    between atoms: O_3  and  C_19 
REMARK    3  A    between atoms: O_5  and  C_17 
REMARK    4  A    between atoms: O_6  and  C_21 
REMARK    5  A    between atoms: C_8  and  C_10 
ROOT
ATOM      1  O   UNL d   1      12.739   1.265   0.879  0.00  0.00    -0.309 OA
ATOM      2  O   UNL d   1      11.942   4.068   0.168  0.00  0.00    -0.287 OA
ATOM      3  C   UNL d   1      12.128   2.404  -0.273  0.00  0.00     0.081 A 
ATOM      4  C   UNL d   1      12.820   1.995   1.558  0.00  0.00     0.090 A 
ATOM      5  C   UNL d   1      12.393   1.469  -0.036  0.00  0.00     0.095 A 
ATOM      6  C   UNL d   1      12.208   3.134   0.405  0.00  0.00     0.190 A 
ATOM      7  C   UNL d   1      12.554   2.930   1.321  0.00  0.00     0.094 A 
ATOM      8  C   UNL d   1      11.765   2.632  -1.223  0.00  0.00     0.085 A 
ATOM      9  C   UNL d   1      12.315   0.698  -0.732  0.00  0.00     0.075 A 
ATOM     10  C   UNL d   1      11.955   0.904  -1.688  0.00  0.00     0.071 A 
ATOM     11  C   UNL d   1      11.679   1.876  -1.935  0.00  0.00     0.074 A 
ENDROOT
BRANCH   4  12
ATOM     12  C   UNL d   1      13.166   1.791   2.474  0.00  0.00     0.001 A 
ATOM     13  C   UNL d   1      12.602   1.986   3.276  0.00  0.00     0.054 A 
ATOM     14  C   UNL d   1      12.948   1.781   4.192  0.00  0.00     0.102 A 
ATOM     15  C   UNL d   1      13.858   1.382   4.305  0.00  0.00     0.099 A 
ATOM     16  C   UNL d   1      14.422   1.187   3.502  0.00  0.00     0.040 A 
ATOM     17  C   UNL d   1      14.076   1.391   2.586  0.00  0.00     0.017 A 
BRANCH  14  18
ATOM     18  O   UNL d   1      12.385   1.976   4.995  0.00  0.00    -0.353 OA
ATOM     19  C   UNL d   1      11.686   2.690   4.953  0.00  0.00     0.210 C 
ENDBRANCH  14  18
BRANCH  15  20
ATOM     20  O   UNL d   1      14.204   1.177   5.220  0.00  0.00    -0.358 OA
ATOM     21  H   UNL d   1      13.978   0.695   5.537  0.00  0.00     0.217 HD
ENDBRANCH  15  20
ENDBRANCH   4  12
BRANCH   8  22
ATOM     22  O   UNL d   1      11.503   3.570  -1.449  0.00  0.00    -0.360 OA
ATOM     23  H   UNL d   1      11.761   4.045  -1.147  0.00  0.00     0.217 HD
ENDBRANCH   8  22
BRANCH  10  24
ATOM     24  O   UNL d   1      11.876   0.170  -2.364  0.00  0.00    -0.361 OA
ATOM     25  H   UNL d   1      11.331   0.057  -2.635  0.00  0.00     0.217 HD
ENDBRANCH  10  24
TORSDOF 5
ENDMDL
MODEL 3
REMARK VINA RESULT:    -7.711     25.012     26.264
REMARK INTER + INTRA:          -7.316
REMARK INTER:                  -9.336
REMARK INTRA:                   2.021
REMARK UNBOUND:                 1.973
REMARK  5 active torsions:
REMARK  status: ('A' for Active; 'I' for Inactive)
REMARK    1  A    between atoms: O_2  and  C_13 
REMARK    2  A    between atoms: O_3  and  C_19 
REMARK    3  A    between atoms: O_5  and  C_17 
REMARK    4  A    between atoms: O_6  and  C_21 
REMARK    5  A    between atoms: C_8  and  C_10 
ROOT
ATOM      1  O   UNL d   1      20.472  -6.841  24.160  0.00  0.00    -0.309 OA
ATOM      2  O   UNL d   1      23.243  -6.986  25.301  0.00  0.00    -0.287 OA
ATOM      3  C   UNL d   1      21.971  -6.072  24.562  0.00  0.00     0.081 A 
ATOM      4  C   UNL d   1      20.820  -7.707  24.519  0.00  0.00     0.090 A 
ATOM      5  C   UNL d   1      21.047  -6.024  24.181  0.00  0.00     0.095 A 
ATOM      6  C   UNL d   1      22.319  -6.938  24.921  0.00  0.00     0.190 A 
ATOM      7  C   UNL d   1      21.744  -7.755  24.899  0.00  0.00     0.094 A 
ATOM      8  C   UNL d   1      22.581  -5.229  24.590  0.00  0.00     0.085 A 
ATOM      9  C   UNL d   1      20.670  -5.129  23.804  0.00  0.00     0.075 A 
ATOM     10  C   UNL d   1      21.263  -4.273  23.822  0.00  0.00     0.071 A 
ATOM     11  C   UNL d   1      22.225  -4.323  24.218  0.00  0.00     0.074 A 
ENDROOT
BRANCH   4  12
ATOM     12  C   UNL d   1      20.245  -8.525  24.498  0.00  0.00     0.001 A 
ATOM     13  C   UNL d   1      19.317  -8.493  24.869  0.00  0.00     0.054 A 
ATOM     14  C   UNL d   1      18.741  -9.311  24.848  0.00  0.00     0.102 A 
ATOM     15  C   UNL d   1      19.094 -10.160  24.456  0.00  0.00     0.099 A 
ATOM     16  C   UNL d   1      20.022 -10.192  24.085  0.00  0.00     0.040 A 
ATOM     17  C   UNL d   1      20.598  -9.374  24.106  0.00  0.00     0.017 A 
BRANCH  14  18
ATOM     18  O   UNL d   1      17.813  -9.279  25.219  0.00  0.00    -0.353 OA
ATOM     19  C   UNL d   1      17.276  -8.438  25.150  0.00  0.00     0.210 C 
ENDBRANCH  14  18
BRANCH  15  20
ATOM     20  O   UNL d   1      18.519 -10.978  24.435  0.00  0.00    -0.358 OA
ATOM     21  H   UNL d   1      18.340 -11.244  24.965  0.00  0.00     0.217 HD
ENDBRANCH  15  20
ENDBRANCH   4  12
BRANCH   8  22
ATOM     22  O   UNL d   1      23.503  -5.289  24.973  0.00  0.00    -0.360 OA
ATOM     23  H   UNL d   1      23.732  -5.838  25.145  0.00  0.00     0.217 HD
ENDBRANCH   8  22
BRANCH  10  24
ATOM     24  O   UNL d   1      20.911  -3.409  23.462  0.00  0.00    -0.361 OA
ATOM     25  H   UNL d   1      20.593  -3.027  23.832  0.00  0.00     0.217 HD
ENDBRANCH  10  24
TORSDOF 5
ENDMDL
MODEL 4
REMARK VINA RESULT:    -7.710      2.294      3.065
REMARK INTER + INTRA:          -7.315
REMARK INTER:                  -9.265
REMARK INTRA:                   1.950
REMARK UNBOUND:                 1.973
REMARK  5 active torsions:
REMARK  status: ('A' for Active; 'I' for Inactive)
REMARK    1  A    between atoms: O_2  and  C_13 
REMARK    2  A    between atoms: O_3  and  C_19 
REMARK    3  A    between atoms: O_5  and  C_17 
REMARK    4  A    between atoms: O_6  and  C_21 
REMARK    5  A    between atoms: C_8  and  C_10 
ROOT
ATOM      1  O   UNL d   1      11.446   2.186   2.020  0.00  0.00    -0.309 OA
ATOM      2  O   UNL d   1      13.535   1.101   3.879  0.00  0.00    -0.287 OA
ATOM      3  C   UNL d   1      12.179   2.139   3.588  0.00  0.00     0.081 A 
ATOM      4  C   UNL d   1      12.105   1.510   1.691  0.00  0.00     0.090 A 
ATOM      5  C   UNL d   1      11.483   2.501   2.968  0.00  0.00     0.095 A 
ATOM      6  C   UNL d   1      12.838   1.462   3.259  0.00  0.00     0.190 A 
ATOM      7  C   UNL d   1      12.801   1.148   2.311  0.00  0.00     0.094 A 
ATOM      8  C   UNL d   1      12.230   2.457   4.578  0.00  0.00     0.085 A 
ATOM      9  C   UNL d   1      10.789   3.206   3.296  0.00  0.00     0.075 A 
ATOM     10  C   UNL d   1      10.822   3.538   4.282  0.00  0.00     0.071 A 
ATOM     11  C   UNL d   1      11.547   3.162   4.928  0.00  0.00     0.074 A 
ENDROOT
BRANCH   4  12
ATOM     12  C   UNL d   1      12.068   1.195   0.743  0.00  0.00     0.001 A 
ATOM     13  C   UNL d   1      12.128   1.856  -0.006  0.00  0.00     0.054 A 
ATOM     14  C   UNL d   1      12.091   1.541  -0.954  0.00  0.00     0.102 A 
ATOM     15  C   UNL d   1      11.993   0.566  -1.154  0.00  0.00     0.099 A 
ATOM     16  C   UNL d   1      11.933  -0.094  -0.406  0.00  0.00     0.040 A 
ATOM     17  C   UNL d   1      11.970   0.220   0.543  0.00  0.00     0.017 A 
BRANCH  14  18
ATOM     18  O   UNL d   1      12.151   2.202  -1.703  0.00  0.00    -0.353 OA
ATOM     19  C   UNL d   1      12.073   3.180  -1.514  0.00  0.00     0.210 C 
ENDBRANCH  14  18
BRANCH  15  20
ATOM     20  O   UNL d   1      11.956   0.252  -2.103  0.00  0.00    -0.358 OA
ATOM     21  H   UNL d   1      11.416   0.250  -2.408  0.00  0.00     0.217 HD
ENDBRANCH  15  20
ENDBRANCH   4  12
BRANCH   8  22
ATOM     22  O   UNL d   1      12.930   2.088   5.189  0.00  0.00    -0.360 OA
ATOM     23  H   UNL d   1      12.784   1.936   5.772  0.00  0.00     0.217 HD
ENDBRANCH   8  22
BRANCH  10  24
ATOM     24  O   UNL d   1      10.161   4.215   4.607  0.00  0.00    -0.361 OA
ATOM     25  H   UNL d   1      10.317   4.814   4.629  0.00  0.00     0.217 HD
ENDBRANCH  10  24
TORSDOF 5
ENDMDL
MODEL 5
REMARK VINA RESULT:    -7.690     38.862     40.901
REMARK INTER + INTRA:          -7.291
REMARK INTER:                  -9.571
REMARK INTRA:                   2.280
REMARK UNBOUND:                 1.973
REMARK  5 active torsions:
REMARK  status: ('A' for Active; 'I' for Inactive)
REMARK    1  A    between atoms: O_2  and  C_13 
REMARK    2  A    between atoms: O_3  and  C_19 
REMARK    3  A    between atoms: O_5  and  C_17 
REMARK    4  A    between atoms: O_6  and  C_21 
REMARK    5  A    between atoms: C_8  and  C_10 
ROOT
ATOM      1  O   UNL d   1      22.832  35.406 -19.225  0.00  0.00    -0.309 OA
ATOM      2  O   UNL d   1      24.412  33.654 -17.371  0.00  0.00    -0.287 OA
ATOM      3  C   UNL d   1      24.183  34.361 -18.936  0.00  0.00     0.081 A 
ATOM      4  C   UNL d   1      22.535  35.283 -18.278  0.00  0.00     0.090 A 
ATOM      5  C   UNL d   1      23.657  34.945 -19.554  0.00  0.00     0.095 A 
ATOM      6  C   UNL d   1      23.885  34.238 -17.989  0.00  0.00     0.190 A 
ATOM      7  C   UNL d   1      23.061  34.699 -17.660  0.00  0.00     0.094 A 
ATOM      8  C   UNL d   1      25.044  33.875 -19.264  0.00  0.00     0.085 A 
ATOM      9  C   UNL d   1      23.954  35.083 -20.543  0.00  0.00     0.075 A 
ATOM     10  C   UNL d   1      24.812  34.606 -20.892  0.00  0.00     0.071 A 
ATOM     11  C   UNL d   1      25.360  33.998 -20.249  0.00  0.00     0.074 A 
ENDROOT
BRANCH   4  12
ATOM     12  C   UNL d   1      21.710  35.744 -17.950  0.00  0.00     0.001 A 
ATOM     13  C   UNL d   1      21.274  35.444 -17.101  0.00  0.00     0.054 A 
ATOM     14  C   UNL d   1      20.450  35.905 -16.773  0.00  0.00     0.102 A 
ATOM     15  C   UNL d   1      20.062  36.666 -17.292  0.00  0.00     0.099 A 
ATOM     16  C   UNL d   1      20.498  36.966 -18.141  0.00  0.00     0.040 A 
ATOM     17  C   UNL d   1      21.322  36.505 -18.469  0.00  0.00     0.017 A 
BRANCH  14  18
ATOM     18  O   UNL d   1      20.014  35.604 -15.924  0.00  0.00    -0.353 OA
ATOM     19  C   UNL d   1      20.045  34.641 -15.660  0.00  0.00     0.210 C 
ENDBRANCH  14  18
BRANCH  15  20
ATOM     20  O   UNL d   1      19.237  37.126 -16.964  0.00  0.00    -0.358 OA
ATOM     21  H   UNL d   1      19.164  37.235 -16.358  0.00  0.00     0.217 HD
ENDBRANCH  15  20
ENDBRANCH   4  12
BRANCH   8  22
ATOM     22  O   UNL d   1      25.562  33.293 -18.637  0.00  0.00    -0.360 OA
ATOM     23  H   UNL d   1      25.434  33.300 -18.031  0.00  0.00     0.217 HD
ENDBRANCH   8  22
BRANCH  10  24
ATOM     24  O   UNL d   1      25.106  34.732 -21.840  0.00  0.00    -0.361 OA
ATOM     25  H   UNL d   1      24.696  34.903 -22.271  0.00  0.00     0.217 HD
ENDBRANCH  10  24
TORSDOF 5
ENDMDL
