MODEL 1
REMARK VINA RESULT:    -6.084      0.000      0.000
REMARK INTER + INTRA:          -5.793
REMARK INTER:                  -6.804
REMARK INTRA:                   1.012
REMARK UNBOUND:                 1.002
REMARK  3 active torsions:
REMARK  status: ('A' for Active; 'I' for Inactive)
REMARK    1  A    between atoms: O_2  and  C_10 
REMARK    2  A    between atoms: O_4  and  C_13 
REMARK    3  A    between atoms: C_7  and  C_9 
ROOT
ATOM      1  O   UNL d   1      27.145  41.797  46.324  0.00  0.00    -0.309 OA
ATOM      2  O   UNL d   1      27.429  38.812  46.221  0.00  0.00    -0.287 OA
ATOM      3  C   UNL d   1      27.918  40.344  46.864  0.00  0.00     0.081 A 
ATOM      4  C   UNL d   1      27.824  41.339  46.898  0.00  0.00     0.095 A 
ATOM      5  C   UNL d   1      26.561  41.260  45.715  0.00  0.00     0.090 A 
ATOM      6  C   UNL d   1      27.334  39.807  46.255  0.00  0.00     0.190 A 
ATOM      7  C   UNL d   1      28.621  39.854  47.456  0.00  0.00     0.085 A 
ATOM      8  C   UNL d   1      26.655  40.265  45.681  0.00  0.00     0.094 A 
ATOM      9  C   UNL d   1      28.425  41.913  47.526  0.00  0.00     0.075 A 
ATOM     10  C   UNL d   1      29.134  41.443  48.127  0.00  0.00     0.071 A 
ATOM     11  C   UNL d   1      29.233  40.407  48.092  0.00  0.00     0.074 A 
ENDROOT
BRANCH   5  12
ATOM     12  C   UNL d   1      25.882  41.717  45.141  0.00  0.00    -0.002 A 
ATOM     13  C   UNL d   1      26.074  41.882  44.174  0.00  0.00     0.014 A 
ATOM     14  C   UNL d   1      25.395  42.340  43.600  0.00  0.00     0.001 A 
ATOM     15  C   UNL d   1      24.524  42.633  43.993  0.00  0.00     0.000 A 
ATOM     16  C   UNL d   1      24.331  42.468  44.961  0.00  0.00     0.001 A 
ATOM     17  C   UNL d   1      25.010  42.010  45.535  0.00  0.00     0.014 A 
ENDBRANCH   5  12
BRANCH   7  18
ATOM     18  O   UNL d   1      28.707  38.859  47.413  0.00  0.00    -0.360 OA
ATOM     19  H   UNL d   1      29.265  38.599  47.345  0.00  0.00     0.217 HD
ENDBRANCH   7  18
BRANCH  10  20
ATOM     20  O   UNL d   1      29.717  41.984  48.734  0.00  0.00    -0.361 OA
ATOM     21  H   UNL d   1      30.196  42.301  48.502  0.00  0.00     0.217 HD
ENDBRANCH  10  20
TORSDOF 3
ENDMDL
MODEL 2
REMARK VINA RESULT:    -6.037      1.361      2.305
REMARK INTER + INTRA:          -5.741
REMARK INTER:                  -7.131
REMARK INTRA:                   1.390
REMARK UNBOUND:                 1.002
REMARK  3 active torsions:
REMARK  status: ('A' for Active; 'I' for Inactive)
REMARK    1  A    between atoms: O_2  and  C_10 
REMARK    2  A    between atoms: O_4  and  C_13 
REMARK    3  A    between atoms: C_7  and  C_9 
ROOT
ATOM      1  O   UNL d   1      28.563  41.144  47.782  0.00  0.00    -0.309 OA
ATOM      2  O   UNL d   1      29.405  38.307  47.294  0.00  0.00    -0.287 OA
ATOM      3  C   UNL d   1      29.639  39.824  48.096  0.00  0.00     0.081 A 
ATOM      4  C   UNL d   1      29.358  40.770  48.259  0.00  0.00     0.095 A 
ATOM      5  C   UNL d   1      28.049  40.573  47.142  0.00  0.00     0.090 A 
ATOM      6  C   UNL d   1      29.125  39.253  47.457  0.00  0.00     0.190 A 
ATOM      7  C   UNL d   1      30.464  39.420  48.586  0.00  0.00     0.085 A 
ATOM      8  C   UNL d   1      28.330  39.627  46.979  0.00  0.00     0.094 A 
ATOM      9  C   UNL d   1      29.883  41.377  48.923  0.00  0.00     0.075 A 
ATOM     10  C   UNL d   1      30.712  40.994  49.423  0.00  0.00     0.071 A 
ATOM     11  C   UNL d   1      31.005  40.009  49.254  0.00  0.00     0.074 A 
ENDROOT
BRANCH   5  12
ATOM     12  C   UNL d   1      27.254  40.948  46.665  0.00  0.00    -0.002 A 
ATOM     13  C   UNL d   1      26.791  41.758  47.025  0.00  0.00     0.014 A 
ATOM     14  C   UNL d   1      25.996  42.132  46.547  0.00  0.00     0.001 A 
ATOM     15  C   UNL d   1      25.664  41.697  45.710  0.00  0.00     0.000 A 
ATOM     16  C   UNL d   1      26.127  40.887  45.351  0.00  0.00     0.001 A 
ATOM     17  C   UNL d   1      26.922  40.512  45.828  0.00  0.00     0.014 A 
ENDBRANCH   5  12
BRANCH   7  18
ATOM     18  O   UNL d   1      30.736  38.473  48.416  0.00  0.00    -0.360 OA
ATOM     19  H   UNL d   1      30.550  38.186  47.899  0.00  0.00     0.217 HD
ENDBRANCH   7  18
BRANCH  10  20
ATOM     20  O   UNL d   1      31.224  41.569  50.062  0.00  0.00    -0.361 OA
ATOM     21  H   UNL d   1      31.451  42.114  49.875  0.00  0.00     0.217 HD
ENDBRANCH  10  20
TORSDOF 3
ENDMDL
MODEL 3
REMARK VINA RESULT:    -5.963      0.941      2.079
REMARK INTER + INTRA:          -5.658
REMARK INTER:                  -6.705
REMARK INTRA:                   1.047
REMARK UNBOUND:                 1.002
REMARK  3 active torsions:
REMARK  status: ('A' for Active; 'I' for Inactive)
REMARK    1  A    between atoms: O_2  and  C_10 
REMARK    2  A    between atoms: O_4  and  C_13 
REMARK    3  A    between atoms: C_7  and  C_9 
ROOT
ATOM      1  O   UNL d   1      27.152  40.224  45.944  0.00  0.00    -0.309 OA
ATOM      2  O   UNL d   1      28.588  41.939  47.942  0.00  0.00    -0.287 OA
ATOM      3  C   UNL d   1      28.335  40.397  47.196  0.00  0.00     0.081 A 
ATOM      4  C   UNL d   1      27.857  39.825  46.530  0.00  0.00     0.095 A 
ATOM      5  C   UNL d   1      26.925  41.195  46.024  0.00  0.00     0.090 A 
ATOM      6  C   UNL d   1      28.109  41.368  47.276  0.00  0.00     0.190 A 
ATOM      7  C   UNL d   1      29.072  39.995  47.813  0.00  0.00     0.085 A 
ATOM      8  C   UNL d   1      27.404  41.767  46.690  0.00  0.00     0.094 A 
ATOM      9  C   UNL d   1      28.081  38.812  46.435  0.00  0.00     0.075 A 
ATOM     10  C   UNL d   1      28.814  38.389  47.042  0.00  0.00     0.071 A 
ATOM     11  C   UNL d   1      29.313  38.985  47.736  0.00  0.00     0.074 A 
ENDROOT
BRANCH   5  12
ATOM     12  C   UNL d   1      26.220  41.594  45.437  0.00  0.00    -0.002 A 
ATOM     13  C   UNL d   1      26.388  41.704  44.458  0.00  0.00     0.014 A 
ATOM     14  C   UNL d   1      25.683  42.103  43.871  0.00  0.00     0.001 A 
ATOM     15  C   UNL d   1      24.811  42.392  44.265  0.00  0.00     0.000 A 
ATOM     16  C   UNL d   1      24.643  42.283  45.245  0.00  0.00     0.001 A 
ATOM     17  C   UNL d   1      25.348  41.884  45.831  0.00  0.00     0.014 A 
ENDBRANCH   5  12
BRANCH   7  18
ATOM     18  O   UNL d   1      29.544  40.576  48.476  0.00  0.00    -0.360 OA
ATOM     19  H   UNL d   1      29.327  41.143  48.600  0.00  0.00     0.217 HD
ENDBRANCH   7  18
BRANCH  10  20
ATOM     20  O   UNL d   1      29.037  37.418  46.959  0.00  0.00    -0.361 OA
ATOM     21  H   UNL d   1      29.619  37.244  46.831  0.00  0.00     0.217 HD
ENDBRANCH  10  20
TORSDOF 3
ENDMDL
MODEL 4
REMARK VINA RESULT:    -5.955      1.662      3.485
REMARK INTER + INTRA:          -5.649
REMARK INTER:                  -7.039
REMARK INTRA:                   1.390
REMARK UNBOUND:                 1.002
REMARK  3 active torsions:
REMARK  status: ('A' for Active; 'I' for Inactive)
REMARK    1  A    between atoms: O_2  and  C_10 
REMARK    2  A    between atoms: O_4  and  C_13 
REMARK    3  A    between atoms: C_7  and  C_9 
ROOT
ATOM      1  O   UNL d   1      28.865  39.817  47.481  0.00  0.00    -0.309 OA
ATOM      2  O   UNL d   1      30.336  41.567  49.423  0.00  0.00    -0.287 OA
ATOM      3  C   UNL d   1      30.175  40.058  48.588  0.00  0.00     0.081 A 
ATOM      4  C   UNL d   1      29.685  39.475  47.940  0.00  0.00     0.095 A 
ATOM      5  C   UNL d   1      28.536  40.742  47.669  0.00  0.00     0.090 A 
ATOM      6  C   UNL d   1      29.846  40.983  48.776  0.00  0.00     0.190 A 
ATOM      7  C   UNL d   1      31.030  39.715  49.074  0.00  0.00     0.085 A 
ATOM      8  C   UNL d   1      29.026  41.325  48.316  0.00  0.00     0.094 A 
ATOM      9  C   UNL d   1      30.015  38.508  47.734  0.00  0.00     0.075 A 
ATOM     10  C   UNL d   1      30.868  38.145  48.209  0.00  0.00     0.071 A 
ATOM     11  C   UNL d   1      31.379  38.753  48.883  0.00  0.00     0.074 A 
ENDROOT
BRANCH   5  12
ATOM     12  C   UNL d   1      27.716  41.084  47.209  0.00  0.00    -0.002 A 
ATOM     13  C   UNL d   1      27.228  41.874  47.580  0.00  0.00     0.014 A 
ATOM     14  C   UNL d   1      26.408  42.216  47.121  0.00  0.00     0.001 A 
ATOM     15  C   UNL d   1      26.077  41.768  46.290  0.00  0.00     0.000 A 
ATOM     16  C   UNL d   1      26.566  40.978  45.919  0.00  0.00     0.001 A 
ATOM     17  C   UNL d   1      27.385  40.636  46.379  0.00  0.00     0.014 A 
ENDBRANCH   5  12
BRANCH   7  18
ATOM     18  O   UNL d   1      31.513  40.308  49.719  0.00  0.00    -0.360 OA
ATOM     19  H   UNL d   1      31.474  40.923  49.663  0.00  0.00     0.217 HD
ENDBRANCH   7  18
BRANCH  10  20
ATOM     20  O   UNL d   1      31.194  37.219  48.018  0.00  0.00    -0.361 OA
ATOM     21  H   UNL d   1      31.318  37.049  47.435  0.00  0.00     0.217 HD
ENDBRANCH  10  20
TORSDOF 3
ENDMDL
MODEL 5
REMARK VINA RESULT:    -5.877      1.668      3.037
REMARK INTER + INTRA:          -5.562
REMARK INTER:                  -6.571
REMARK INTRA:                   1.009
REMARK UNBOUND:                 1.002
REMARK  3 active torsions:
REMARK  status: ('A' for Active; 'I' for Inactive)
REMARK    1  A    between atoms: O_2  and  C_10 
REMARK    2  A    between atoms: O_4  and  C_13 
REMARK    3  A    between atoms: C_7  and  C_9 
ROOT
ATOM      1  O   UNL d   1      27.431  39.636  46.196  0.00  0.00    -0.309 OA
ATOM      2  O   UNL d   1      25.811  42.161  46.194  0.00  0.00    -0.287 OA
ATOM      3  C   UNL d   1      27.113  41.215  46.834  0.00  0.00     0.081 A 
ATOM      4  C   UNL d   1      27.653  40.373  46.835  0.00  0.00     0.095 A 
ATOM      5  C   UNL d   1      26.669  39.740  45.557  0.00  0.00     0.090 A 
ATOM      6  C   UNL d   1      26.351  41.319  46.195  0.00  0.00     0.190 A 
ATOM      7  C   UNL d   1      27.333  41.990  47.493  0.00  0.00     0.085 A 
ATOM      8  C   UNL d   1      26.129  40.582  45.557  0.00  0.00     0.094 A 
ATOM      9  C   UNL d   1      28.450  40.249  47.494  0.00  0.00     0.075 A 
ATOM     10  C   UNL d   1      28.687  41.013  48.162  0.00  0.00     0.071 A 
ATOM     11  C   UNL d   1      28.125  41.889  48.161  0.00  0.00     0.074 A 
ENDROOT
BRANCH   5  12
ATOM     12  C   UNL d   1      26.447  39.003  44.919  0.00  0.00    -0.002 A 
ATOM     13  C   UNL d   1      25.708  38.364  45.131  0.00  0.00     0.014 A 
ATOM     14  C   UNL d   1      25.486  37.627  44.493  0.00  0.00     0.001 A 
ATOM     15  C   UNL d   1      26.003  37.529  43.642  0.00  0.00     0.000 A 
ATOM     16  C   UNL d   1      26.742  38.169  43.430  0.00  0.00     0.001 A 
ATOM     17  C   UNL d   1      26.964  38.906  44.068  0.00  0.00     0.014 A 
ENDBRANCH   5  12
BRANCH   7  18
ATOM     18  O   UNL d   1      26.786  42.828  47.483  0.00  0.00    -0.360 OA
ATOM     19  H   UNL d   1      26.661  43.110  46.946  0.00  0.00     0.217 HD
ENDBRANCH   7  18
BRANCH  10  20
ATOM     20  O   UNL d   1      29.450  40.904  48.799  0.00  0.00    -0.361 OA
ATOM     21  H   UNL d   1      29.566  41.343  49.221  0.00  0.00     0.217 HD
ENDBRANCH  10  20
TORSDOF 3
ENDMDL
