MODEL 1
REMARK VINA RESULT:   -13.040      0.000      0.000
REMARK INTER + INTRA:         -14.737
REMARK INTER:                 -16.129
REMARK INTRA:                   1.392
REMARK UNBOUND:                 1.353
REMARK  6 active torsions:
REMARK  status: ('A' for Active; 'I' for Inactive)
REMARK    1  A    between atoms: C_22  and  O_1 
REMARK    2  A    between atoms: C_24  and  O_2 
REMARK    3  A    between atoms: O_3  and  C_30 
REMARK    4  A    between atoms: O_4  and  C_33 
REMARK    5  A    between atoms: C_14  and  C_30 
REMARK    6  A    between atoms: C_19  and  C_33 
ROOT
ATOM      1  C   UNL d   1      36.448  40.456  23.285  0.00  0.00    -0.028 A 
ATOM      2  C   UNL d   1      36.609  40.667  24.249  0.00  0.00     0.007 A 
ATOM      3  C   UNL d   1      35.846  40.570  24.952  0.00  0.00    -0.033 A 
ATOM      4  C   UNL d   1      37.190  40.554  22.621  0.00  0.00    -0.013 A 
ATOM      5  C   UNL d   1      34.904  40.248  24.646  0.00  0.00     0.007 A 
ATOM      6  C   UNL d   1      35.514  40.132  22.957  0.00  0.00     0.011 A 
ATOM      7  C   UNL d   1      38.092  40.863  22.921  0.00  0.00    -0.069 A 
ATOM      8  C   UNL d   1      34.737  40.028  23.642  0.00  0.00     0.007 A 
ATOM      9  C   UNL d   1      34.094  40.139  25.361  0.00  0.00     0.010 A 
ATOM     10  C   UNL d   1      38.874  40.970  22.242  0.00  0.00     0.038 A 
ATOM     11  C   UNL d   1      37.511  40.977  24.549  0.00  0.00     0.033 A 
ATOM     12  C   UNL d   1      36.044  40.805  25.992  0.00  0.00     0.044 A 
ATOM     13  C   UNL d   1      37.007  40.329  21.620  0.00  0.00     0.016 A 
ATOM     14  C   UNL d   1      38.715  40.752  21.236  0.00  0.00     0.053 A 
ATOM     15  C   UNL d   1      35.973  40.176  22.450  0.00  0.00     0.016 C 
ATOM     16  C   UNL d   1      37.775  40.429  20.923  0.00  0.00     0.022 A 
ATOM     17  C   UNL d   1      34.268  40.369  26.406  0.00  0.00     0.157 A 
ATOM     18  C   UNL d   1      38.252  41.075  23.885  0.00  0.00    -0.022 A 
ATOM     19  C   UNL d   1      35.250  40.704  26.724  0.00  0.00     0.148 A 
ATOM     20  C   UNL d   1      36.751  40.879  25.244  0.00  0.00     0.016 C 
ATOM     21  C   UNL d   1      36.457  40.240  22.017  0.00  0.00     0.021 C 
ATOM     22  C   UNL d   1      39.844  41.308  22.591  0.00  0.00    -0.005 A 
ATOM     23  C   UNL d   1      39.514  40.856  20.510  0.00  0.00     0.021 A 
ATOM     24  C   UNL d   1      40.659  41.419  21.883  0.00  0.00    -0.014 A 
ATOM     25  C   UNL d   1      33.484  39.839  24.628  0.00  0.00     0.020 C 
ATOM     26  C   UNL d   1      40.493  41.192  20.836  0.00  0.00     0.006 A 
ATOM     27  C   UNL d   1      39.987  41.515  23.560  0.00  0.00     0.011 C 
ATOM     28  C   UNL d   1      41.557  41.730  22.195  0.00  0.00     0.010 C 
ENDROOT
BRANCH   9  29
ATOM     29  C   UNL d   1      33.145  39.903  25.566  0.00  0.00     0.176 C 
BRANCH  29  30
ATOM     30  O   UNL d   1      32.458  39.913  24.840  0.00  0.00    -0.400 OA
ATOM     31  H   UNL d   1      32.635  39.928  24.246  0.00  0.00     0.209 HD
ENDBRANCH  29  30
ENDBRANCH   9  29
BRANCH  17  32
ATOM     32  O   UNL d   1      33.530  40.272  27.073  0.00  0.00    -0.392 OA
ATOM     33  H   UNL d   1      33.574  39.852  27.527  0.00  0.00     0.210 HD
ENDBRANCH  17  32
BRANCH  19  34
ATOM     34  O   UNL d   1      35.421  40.919  27.686  0.00  0.00    -0.393 OA
ATOM     35  H   UNL d   1      35.401  40.469  28.112  0.00  0.00     0.210 HD
ENDBRANCH  19  34
BRANCH  14  36
ATOM     36  C   UNL d   1      38.562  40.542  20.270  0.00  0.00     0.149 C 
ATOM     37  O   UNL d   1      38.883  39.674  19.891  0.00  0.00    -0.649 OA
BRANCH  36  38
ATOM     38  O   UNL d   1      38.088  41.199  19.684  0.00  0.00    -0.776 OA
ATOM     39  H   UNL d   1      37.473  41.261  19.723  0.00  0.00     0.167 HD
ENDBRANCH  36  38
ENDBRANCH  14  36
TORSDOF 6
ENDMDL
MODEL 2
REMARK VINA RESULT:   -13.004      0.985      2.596
REMARK INTER + INTRA:         -14.692
REMARK INTER:                 -16.009
REMARK INTRA:                   1.316
REMARK UNBOUND:                 1.353
REMARK  6 active torsions:
REMARK  status: ('A' for Active; 'I' for Inactive)
REMARK    1  A    between atoms: C_22  and  O_1 
REMARK    2  A    between atoms: C_24  and  O_2 
REMARK    3  A    between atoms: O_3  and  C_30 
REMARK    4  A    between atoms: O_4  and  C_33 
REMARK    5  A    between atoms: C_14  and  C_30 
REMARK    6  A    between atoms: C_19  and  C_33 
ROOT
ATOM      1  C   UNL d   1      36.982  40.807  23.993  0.00  0.00    -0.028 A 
ATOM      2  C   UNL d   1      36.075  40.464  23.750  0.00  0.00     0.007 A 
ATOM      3  C   UNL d   1      35.328  40.372  24.470  0.00  0.00    -0.033 A 
ATOM      4  C   UNL d   1      37.690  40.889  23.291  0.00  0.00    -0.013 A 
ATOM      5  C   UNL d   1      35.529  40.641  25.456  0.00  0.00     0.007 A 
ATOM      6  C   UNL d   1      37.205  41.081  24.972  0.00  0.00     0.011 A 
ATOM      7  C   UNL d   1      37.489  40.629  22.346  0.00  0.00    -0.069 A 
ATOM      8  C   UNL d   1      36.474  40.998  25.709  0.00  0.00     0.007 A 
ATOM      9  C   UNL d   1      34.766  40.554  26.223  0.00  0.00     0.010 A 
ATOM     10  C   UNL d   1      38.216  40.710  21.603  0.00  0.00     0.038 A 
ATOM     11  C   UNL d   1      35.874  40.204  22.805  0.00  0.00     0.033 A 
ATOM     12  C   UNL d   1      34.350  39.998  24.183  0.00  0.00     0.044 A 
ATOM     13  C   UNL d   1      38.630  41.248  23.559  0.00  0.00     0.016 A 
ATOM     14  C   UNL d   1      39.163  41.066  21.849  0.00  0.00     0.053 A 
ATOM     15  C   UNL d   1      37.735  41.164  24.546  0.00  0.00     0.016 C 
ATOM     16  C   UNL d   1      39.372  41.337  22.833  0.00  0.00     0.022 A 
ATOM     17  C   UNL d   1      33.782  40.182  25.960  0.00  0.00     0.157 A 
ATOM     18  C   UNL d   1      36.582  40.286  22.103  0.00  0.00    -0.022 A 
ATOM     19  C   UNL d   1      33.572  39.902  24.933  0.00  0.00     0.148 A 
ATOM     20  C   UNL d   1      35.135  40.114  23.523  0.00  0.00     0.016 C 
ATOM     21  C   UNL d   1      38.197  41.218  24.088  0.00  0.00     0.021 C 
ATOM     22  C   UNL d   1      37.976  40.422  20.586  0.00  0.00    -0.005 A 
ATOM     23  C   UNL d   1      39.937  41.158  21.093  0.00  0.00     0.021 A 
ATOM     24  C   UNL d   1      38.732  40.505  19.813  0.00  0.00    -0.014 A 
ATOM     25  C   UNL d   1      35.409  40.902  26.906  0.00  0.00     0.020 C 
ATOM     26  C   UNL d   1      39.719  40.876  20.068  0.00  0.00     0.006 A 
ATOM     27  C   UNL d   1      37.062  40.081  20.361  0.00  0.00     0.011 C 
ATOM     28  C   UNL d   1      38.521  40.242  18.872  0.00  0.00     0.010 C 
ENDROOT
BRANCH   9  29
ATOM     29  C   UNL d   1      34.477  40.658  27.175  0.00  0.00     0.176 C 
BRANCH  29  30
ATOM     30  O   UNL d   1      35.143  40.556  27.914  0.00  0.00    -0.400 OA
ATOM     31  H   UNL d   1      35.243  39.999  28.167  0.00  0.00     0.209 HD
ENDBRANCH  29  30
ENDBRANCH   9  29
BRANCH  17  32
ATOM     32  O   UNL d   1      33.072  40.098  26.659  0.00  0.00    -0.392 OA
ATOM     33  H   UNL d   1      32.936  39.543  26.899  0.00  0.00     0.210 HD
ENDBRANCH  17  32
BRANCH  19  34
ATOM     34  O   UNL d   1      32.668  39.559  24.680  0.00  0.00    -0.393 OA
ATOM     35  H   UNL d   1      32.527  38.961  24.769  0.00  0.00     0.210 HD
ENDBRANCH  19  34
BRANCH  14  36
ATOM     36  C   UNL d   1      40.073  41.408  22.084  0.00  0.00     0.149 C 
ATOM     37  O   UNL d   1      40.272  42.385  22.016  0.00  0.00    -0.649 OA
BRANCH  36  38
ATOM     38  O   UNL d   1      40.784  40.773  22.386  0.00  0.00    -0.776 OA
ATOM     39  H   UNL d   1      40.824  40.615  22.984  0.00  0.00     0.167 HD
ENDBRANCH  36  38
ENDBRANCH  14  36
TORSDOF 6
ENDMDL
MODEL 3
REMARK VINA RESULT:   -12.176     16.627     20.797
REMARK INTER + INTRA:         -13.670
REMARK INTER:                 -14.997
REMARK INTRA:                   1.327
REMARK UNBOUND:                 1.353
REMARK  6 active torsions:
REMARK  status: ('A' for Active; 'I' for Inactive)
REMARK    1  A    between atoms: C_22  and  O_1 
REMARK    2  A    between atoms: C_24  and  O_2 
REMARK    3  A    between atoms: O_3  and  C_30 
REMARK    4  A    between atoms: O_4  and  C_33 
REMARK    5  A    between atoms: C_14  and  C_30 
REMARK    6  A    between atoms: C_19  and  C_33 
ROOT
ATOM      1  C   UNL d   1      43.806  46.079   5.110  0.00  0.00    -0.028 A 
ATOM      2  C   UNL d   1      44.513  45.380   5.009  0.00  0.00     0.007 A 
ATOM      3  C   UNL d   1      45.313  45.519   4.356  0.00  0.00    -0.033 A 
ATOM      4  C   UNL d   1      43.044  45.932   5.741  0.00  0.00    -0.013 A 
ATOM      5  C   UNL d   1      45.376  46.397   3.801  0.00  0.00     0.007 A 
ATOM      6  C   UNL d   1      43.848  46.965   4.565  0.00  0.00     0.011 A 
ATOM      7  C   UNL d   1      42.990  45.086   6.271  0.00  0.00    -0.069 A 
ATOM      8  C   UNL d   1      44.639  47.126   3.906  0.00  0.00     0.007 A 
ATOM      9  C   UNL d   1      46.200  46.564   3.114  0.00  0.00     0.010 A 
ATOM     10  C   UNL d   1      42.202  44.918   6.933  0.00  0.00     0.038 A 
ATOM     11  C   UNL d   1      44.459  44.534   5.539  0.00  0.00     0.033 A 
ATOM     12  C   UNL d   1      46.069  44.746   4.263  0.00  0.00     0.044 A 
ATOM     13  C   UNL d   1      42.314  46.670   5.835  0.00  0.00     0.016 A 
ATOM     14  C   UNL d   1      41.462  45.642   7.043  0.00  0.00     0.053 A 
ATOM     15  C   UNL d   1      43.302  46.933   4.976  0.00  0.00     0.016 C 
ATOM     16  C   UNL d   1      41.518  46.524   6.491  0.00  0.00     0.022 A 
ATOM     17  C   UNL d   1      46.967  45.806   3.004  0.00  0.00     0.157 A 
ATOM     18  C   UNL d   1      43.697  44.387   6.170  0.00  0.00    -0.022 A 
ATOM     19  C   UNL d   1      46.901  44.890   3.583  0.00  0.00     0.148 A 
ATOM     20  C   UNL d   1      45.252  44.675   4.889  0.00  0.00     0.016 C 
ATOM     21  C   UNL d   1      42.805  46.837   5.387  0.00  0.00     0.021 C 
ATOM     22  C   UNL d   1      42.165  43.993   7.496  0.00  0.00    -0.005 A 
ATOM     23  C   UNL d   1      40.632  45.491   7.725  0.00  0.00     0.021 A 
ATOM     24  C   UNL d   1      41.345  43.819   8.185  0.00  0.00    -0.014 A 
ATOM     25  C   UNL d   1      45.819  47.456   2.869  0.00  0.00     0.020 C 
ATOM     26  C   UNL d   1      40.573  44.573   8.300  0.00  0.00     0.006 A 
ATOM     27  C   UNL d   1      42.882  43.304   7.383  0.00  0.00     0.011 C 
ATOM     28  C   UNL d   1      41.301  42.969   8.710  0.00  0.00     0.010 C 
ENDROOT
BRANCH   9  29
ATOM     29  C   UNL d   1      46.668  47.140   2.444  0.00  0.00     0.176 C 
BRANCH  29  30
ATOM     30  O   UNL d   1      46.216  47.956   2.083  0.00  0.00    -0.400 OA
ATOM     31  H   UNL d   1      46.484  48.511   2.144  0.00  0.00     0.209 HD
ENDBRANCH  29  30
ENDBRANCH   9  29
BRANCH  17  32
ATOM     32  O   UNL d   1      47.730  45.949   2.375  0.00  0.00    -0.392 OA
ATOM     33  H   UNL d   1      48.144  46.397   2.485  0.00  0.00     0.210 HD
ENDBRANCH  17  32
BRANCH  19  34
ATOM     34  O   UNL d   1      47.603  44.184   3.490  0.00  0.00    -0.393 OA
ATOM     35  H   UNL d   1      48.203  44.341   3.488  0.00  0.00     0.210 HD
ENDBRANCH  19  34
BRANCH  14  36
ATOM     36  C   UNL d   1      40.750  46.337   7.149  0.00  0.00     0.149 C 
ATOM     37  O   UNL d   1      40.813  47.006   7.890  0.00  0.00    -0.649 OA
BRANCH  36  38
ATOM     38  O   UNL d   1      39.977  46.363   6.516  0.00  0.00    -0.776 OA
ATOM     39  H   UNL d   1      39.903  45.910   6.099  0.00  0.00     0.167 HD
ENDBRANCH  36  38
ENDBRANCH  14  36
TORSDOF 6
ENDMDL
MODEL 4
REMARK VINA RESULT:   -12.143      1.333      6.202
REMARK INTER + INTRA:         -13.629
REMARK INTER:                 -15.005
REMARK INTRA:                   1.376
REMARK UNBOUND:                 1.353
REMARK  6 active torsions:
REMARK  status: ('A' for Active; 'I' for Inactive)
REMARK    1  A    between atoms: C_22  and  O_1 
REMARK    2  A    between atoms: C_24  and  O_2 
REMARK    3  A    between atoms: O_3  and  C_30 
REMARK    4  A    between atoms: O_4  and  C_33 
REMARK    5  A    between atoms: C_14  and  C_30 
REMARK    6  A    between atoms: C_19  and  C_33 
ROOT
ATOM      1  C   UNL d   1      37.523  40.886  23.285  0.00  0.00    -0.028 A 
ATOM      2  C   UNL d   1      37.726  40.718  22.320  0.00  0.00     0.007 A 
ATOM      3  C   UNL d   1      38.691  40.842  21.947  0.00  0.00    -0.033 A 
ATOM      4  C   UNL d   1      36.592  40.764  23.629  0.00  0.00    -0.013 A 
ATOM      5  C   UNL d   1      39.454  41.144  22.587  0.00  0.00     0.007 A 
ATOM      6  C   UNL d   1      38.271  41.189  23.943  0.00  0.00     0.011 A 
ATOM      7  C   UNL d   1      35.864  40.473  23.008  0.00  0.00    -0.069 A 
ATOM      8  C   UNL d   1      39.243  41.319  23.592  0.00  0.00     0.007 A 
ATOM      9  C   UNL d   1      40.467  41.279  22.221  0.00  0.00     0.010 A 
ATOM     10  C   UNL d   1      34.889  40.341  23.352  0.00  0.00     0.038 A 
ATOM     11  C   UNL d   1      36.998  40.428  21.700  0.00  0.00     0.033 A 
ATOM     12  C   UNL d   1      38.887  40.654  20.897  0.00  0.00     0.044 A 
ATOM     13  C   UNL d   1      36.397  40.943  24.637  0.00  0.00     0.016 A 
ATOM     14  C   UNL d   1      34.671  40.515  24.355  0.00  0.00     0.053 A 
ATOM     15  C   UNL d   1      37.660  41.126  24.246  0.00  0.00     0.016 C 
ATOM     16  C   UNL d   1      35.430  40.817  25.002  0.00  0.00     0.022 A 
ATOM     17  C   UNL d   1      40.687  41.097  21.175  0.00  0.00     0.157 A 
ATOM     18  C   UNL d   1      36.067  40.305  22.044  0.00  0.00    -0.022 A 
ATOM     19  C   UNL d   1      39.892  40.782  20.508  0.00  0.00     0.148 A 
ATOM     20  C   UNL d   1      37.957  40.551  21.333  0.00  0.00     0.016 C 
ATOM     21  C   UNL d   1      37.053  41.046  24.471  0.00  0.00     0.021 C 
ATOM     22  C   UNL d   1      34.116  40.026  22.660  0.00  0.00    -0.005 A 
ATOM     23  C   UNL d   1      33.663  40.384  24.737  0.00  0.00     0.021 A 
ATOM     24  C   UNL d   1      33.101  39.888  23.018  0.00  0.00    -0.014 A 
ATOM     25  C   UNL d   1      40.767  41.544  23.138  0.00  0.00     0.020 C 
ATOM     26  C   UNL d   1      32.873  40.069  24.063  0.00  0.00     0.006 A 
ATOM     27  C   UNL d   1      34.337  39.862  21.698  0.00  0.00     0.011 C 
ATOM     28  C   UNL d   1      32.381  39.598  22.388  0.00  0.00     0.010 C 
ENDROOT
BRANCH   9  29
ATOM     29  C   UNL d   1      41.424  41.519  22.385  0.00  0.00     0.176 C 
BRANCH  29  30
ATOM     30  O   UNL d   1      41.908  41.137  23.173  0.00  0.00    -0.400 OA
ATOM     31  H   UNL d   1      41.726  40.596  23.416  0.00  0.00     0.209 HD
ENDBRANCH  29  30
ENDBRANCH   9  29
BRANCH  17  32
ATOM     32  O   UNL d   1      41.616  41.219  20.827  0.00  0.00    -0.392 OA
ATOM     33  H   UNL d   1      41.780  41.753  20.559  0.00  0.00     0.210 HD
ENDBRANCH  17  32
BRANCH  19  34
ATOM     34  O   UNL d   1      40.083  40.611  19.542  0.00  0.00    -0.393 OA
ATOM     35  H   UNL d   1      40.560  40.894  19.265  0.00  0.00     0.210 HD
ENDBRANCH  19  34
BRANCH  14  36
ATOM     36  C   UNL d   1      34.460  40.681  25.319  0.00  0.00     0.149 C 
ATOM     37  O   UNL d   1      34.525  39.933  25.980  0.00  0.00    -0.649 OA
BRANCH  36  38
ATOM     38  O   UNL d   1      34.186  41.593  25.621  0.00  0.00    -0.776 OA
ATOM     39  H   UNL d   1      34.230  42.074  25.233  0.00  0.00     0.167 HD
ENDBRANCH  36  38
ENDBRANCH  14  36
TORSDOF 6
ENDMDL
MODEL 5
REMARK VINA RESULT:   -11.925      3.821      6.732
REMARK INTER + INTRA:         -13.361
REMARK INTER:                 -14.683
REMARK INTRA:                   1.323
REMARK UNBOUND:                 1.353
REMARK  6 active torsions:
REMARK  status: ('A' for Active; 'I' for Inactive)
REMARK    1  A    between atoms: C_22  and  O_1 
REMARK    2  A    between atoms: C_24  and  O_2 
REMARK    3  A    between atoms: O_3  and  C_30 
REMARK    4  A    between atoms: O_4  and  C_33 
REMARK    5  A    between atoms: C_14  and  C_30 
REMARK    6  A    between atoms: C_19  and  C_33 
ROOT
ATOM      1  C   UNL d   1      37.445  44.138  24.033  0.00  0.00    -0.028 A 
ATOM      2  C   UNL d   1      37.133  43.195  23.917  0.00  0.00     0.007 A 
ATOM      3  C   UNL d   1      37.614  42.550  23.255  0.00  0.00    -0.033 A 
ATOM      4  C   UNL d   1      36.973  44.746  24.672  0.00  0.00    -0.013 A 
ATOM      5  C   UNL d   1      38.431  42.892  22.707  0.00  0.00     0.007 A 
ATOM      6  C   UNL d   1      38.259  44.501  23.495  0.00  0.00     0.011 A 
ATOM      7  C   UNL d   1      36.190  44.410  25.195  0.00  0.00    -0.069 A 
ATOM      8  C   UNL d   1      38.755  43.875  22.827  0.00  0.00     0.007 A 
ATOM      9  C   UNL d   1      38.948  42.239  22.011  0.00  0.00     0.010 A 
ATOM     10  C   UNL d   1      35.688  45.031  25.864  0.00  0.00     0.038 A 
ATOM     11  C   UNL d   1      36.350  42.859  24.440  0.00  0.00     0.033 A 
ATOM     12  C   UNL d   1      37.258  41.531  23.146  0.00  0.00     0.044 A 
ATOM     13  C   UNL d   1      37.310  45.725  24.781  0.00  0.00     0.016 A 
ATOM     14  C   UNL d   1      36.007  46.015  25.990  0.00  0.00     0.053 A 
ATOM     15  C   UNL d   1      37.986  44.971  23.912  0.00  0.00     0.016 C 
ATOM     16  C   UNL d   1      36.824  46.364  25.445  0.00  0.00     0.022 A 
ATOM     17  C   UNL d   1      38.610  41.216  21.885  0.00  0.00     0.157 A 
ATOM     18  C   UNL d   1      35.878  43.467  25.079  0.00  0.00    -0.022 A 
ATOM     19  C   UNL d   1      37.759  40.859  22.457  0.00  0.00     0.148 A 
ATOM     20  C   UNL d   1      36.830  42.222  23.782  0.00  0.00     0.016 C 
ATOM     21  C   UNL d   1      37.678  45.367  24.329  0.00  0.00     0.021 C 
ATOM     22  C   UNL d   1      34.842  44.645  26.421  0.00  0.00    -0.005 A 
ATOM     23  C   UNL d   1      35.501  46.680  26.682  0.00  0.00     0.021 A 
ATOM     24  C   UNL d   1      34.319  45.292  27.118  0.00  0.00    -0.014 A 
ATOM     25  C   UNL d   1      39.578  42.980  21.779  0.00  0.00     0.020 C 
ATOM     26  C   UNL d   1      34.651  46.316  27.249  0.00  0.00     0.006 A 
ATOM     27  C   UNL d   1      34.543  43.698  26.292  0.00  0.00     0.011 C 
ATOM     28  C   UNL d   1      33.537  44.946  27.636  0.00  0.00     0.010 C 
ENDROOT
BRANCH   9  29
ATOM     29  C   UNL d   1      39.674  42.086  21.341  0.00  0.00     0.176 C 
BRANCH  29  30
ATOM     30  O   UNL d   1      39.975  42.834  20.750  0.00  0.00    -0.400 OA
ATOM     31  H   UNL d   1      40.179  42.714  20.177  0.00  0.00     0.209 HD
ENDBRANCH  29  30
ENDBRANCH   9  29
BRANCH  17  32
ATOM     32  O   UNL d   1      39.079  40.605  21.248  0.00  0.00    -0.392 OA
ATOM     33  H   UNL d   1      38.838  40.499  20.686  0.00  0.00     0.210 HD
ENDBRANCH  17  32
BRANCH  19  34
ATOM     34  O   UNL d   1      37.439  39.918  22.349  0.00  0.00    -0.393 OA
ATOM     35  H   UNL d   1      36.979  39.791  21.953  0.00  0.00     0.210 HD
ENDBRANCH  19  34
BRANCH  14  36
ATOM     36  C   UNL d   1      36.313  46.959  26.111  0.00  0.00     0.149 C 
ATOM     37  O   UNL d   1      37.022  47.172  26.784  0.00  0.00    -0.649 OA
BRANCH  36  38
ATOM     38  O   UNL d   1      35.911  47.690  25.561  0.00  0.00    -0.776 OA
ATOM     39  H   UNL d   1      35.339  47.893  25.685  0.00  0.00     0.167 HD
ENDBRANCH  36  38
ENDBRANCH  14  36
TORSDOF 6
ENDMDL
