MODEL 1
REMARK VINA RESULT:    -8.091      0.000      0.000
REMARK INTER + INTRA:          -6.058
REMARK INTER:                  -9.034
REMARK INTRA:                   2.977
REMARK UNBOUND:                 2.980
REMARK  2 active torsions:
REMARK  status: ('A' for Active; 'I' for Inactive)
REMARK    1  A    between atoms: O_3  and  C_17 
REMARK    2  A    between atoms: O_4  and  C_21 
ROOT
ATOM      1  O   UNL d   1       7.709  40.446  47.583  0.00  0.00    -0.323 OA
ATOM      2  O   UNL d   1       6.169  41.063  47.825  0.00  0.00    -0.323 OA
ATOM      3  N   UNL d   1       7.658  42.758  43.687  0.00  0.00    -0.400 N 
ATOM      4  C   UNL d   1       8.067  42.155  44.371  0.00  0.00     0.117 A 
ATOM      5  C   UNL d   1       9.023  41.763  44.236  0.00  0.00     0.069 A 
ATOM      6  C   UNL d   1       7.558  41.920  45.199  0.00  0.00    -0.026 A 
ATOM      7  C   UNL d   1       6.739  43.127  43.831  0.00  0.00     0.122 A 
ATOM      8  C   UNL d   1       8.176  43.012  42.820  0.00  0.00     0.160 A 
ATOM      9  C   UNL d   1       6.230  42.891  44.659  0.00  0.00     0.058 A 
ATOM     10  C   UNL d   1       6.640  42.288  45.343  0.00  0.00    -0.045 A 
ATOM     11  C   UNL d   1       9.559  42.004  43.376  0.00  0.00    -0.045 A 
ATOM     12  C   UNL d   1       9.133  42.632  42.664  0.00  0.00     0.002 A 
ATOM     13  C   UNL d   1       7.998  41.290  45.903  0.00  0.00     0.049 A 
ATOM     14  C   UNL d   1       6.097  42.052  46.201  0.00  0.00     0.047 A 
ATOM     15  C   UNL d   1       9.672  42.897  41.760  0.00  0.00     0.110 A 
ATOM     16  C   UNL d   1      10.555  41.596  43.234  0.00  0.00     0.011 A 
ATOM     17  C   UNL d   1       7.474  41.040  46.768  0.00  0.00     0.105 A 
ATOM     18  C   UNL d   1       6.517  41.424  46.918  0.00  0.00     0.105 A 
ATOM     19  C   UNL d   1      10.669  42.501  41.596  0.00  0.00     0.102 A 
ATOM     20  C   UNL d   1      11.114  41.846  42.339  0.00  0.00     0.040 A 
ATOM     21  C   UNL d   1       6.904  40.461  48.234  0.00  0.00     0.352 A 
ENDROOT
BRANCH  15  22
ATOM     22  O   UNL d   1       9.254  43.501  41.082  0.00  0.00    -0.352 OA
ATOM     23  C   UNL d   1       8.710  43.116  40.336  0.00  0.00     0.210 C 
ENDBRANCH  15  22
BRANCH  19  24
ATOM     24  O   UNL d   1      11.175  42.738  40.767  0.00  0.00    -0.353 OA
ATOM     25  C   UNL d   1      12.139  42.488  40.681  0.00  0.00     0.210 C 
ENDBRANCH  19  24
TORSDOF 2
ENDMDL
MODEL 2
REMARK VINA RESULT:    -7.745      0.961      5.634
REMARK INTER + INTRA:          -5.671
REMARK INTER:                  -8.687
REMARK INTRA:                   3.016
REMARK UNBOUND:                 2.980
REMARK  2 active torsions:
REMARK  status: ('A' for Active; 'I' for Inactive)
REMARK    1  A    between atoms: O_3  and  C_17 
REMARK    2  A    between atoms: O_4  and  C_21 
ROOT
ATOM      1  O   UNL d   1      11.173  42.143  42.224  0.00  0.00    -0.323 OA
ATOM      2  O   UNL d   1      10.505  42.899  40.885  0.00  0.00    -0.323 OA
ATOM      3  N   UNL d   1       6.957  42.107  43.884  0.00  0.00    -0.400 N 
ATOM      4  C   UNL d   1       7.939  41.917  43.913  0.00  0.00     0.117 A 
ATOM      5  C   UNL d   1       8.369  41.448  44.738  0.00  0.00     0.069 A 
ATOM      6  C   UNL d   1       8.522  42.179  43.144  0.00  0.00    -0.026 A 
ATOM      7  C   UNL d   1       6.559  42.558  43.085  0.00  0.00     0.122 A 
ATOM      8  C   UNL d   1       6.338  41.840  44.677  0.00  0.00     0.160 A 
ATOM      9  C   UNL d   1       7.142  42.820  42.316  0.00  0.00     0.058 A 
ATOM     10  C   UNL d   1       8.123  42.630  42.345  0.00  0.00    -0.045 A 
ATOM     11  C   UNL d   1       7.768  41.172  45.543  0.00  0.00    -0.045 A 
ATOM     12  C   UNL d   1       6.746  41.370  45.512  0.00  0.00     0.002 A 
ATOM     13  C   UNL d   1       9.543  41.975  43.189  0.00  0.00     0.049 A 
ATOM     14  C   UNL d   1       8.718  42.909  41.536  0.00  0.00     0.047 A 
ATOM     15  C   UNL d   1       6.101  41.092  46.339  0.00  0.00     0.110 A 
ATOM     16  C   UNL d   1       8.216  40.684  46.402  0.00  0.00     0.011 A 
ATOM     17  C   UNL d   1      10.157  42.245  42.391  0.00  0.00     0.105 A 
ATOM     18  C   UNL d   1       9.741  42.715  41.560  0.00  0.00     0.105 A 
ATOM     19  C   UNL d   1       6.525  40.602  47.209  0.00  0.00     0.102 A 
ATOM     20  C   UNL d   1       7.590  40.396  47.240  0.00  0.00     0.040 A 
ATOM     21  C   UNL d   1      11.388  42.547  41.294  0.00  0.00     0.352 A 
ENDROOT
BRANCH  15  22
ATOM     22  O   UNL d   1       5.120  41.286  46.299  0.00  0.00    -0.352 OA
ATOM     23  C   UNL d   1       4.766  42.148  46.661  0.00  0.00     0.210 C 
ENDBRANCH  15  22
BRANCH  19  24
ATOM     24  O   UNL d   1       5.940  40.341  47.976  0.00  0.00    -0.353 OA
ATOM     25  C   UNL d   1       6.160  39.534  48.523  0.00  0.00     0.210 C 
ENDBRANCH  19  24
TORSDOF 2
ENDMDL
MODEL 3
REMARK VINA RESULT:    -7.714      1.224      2.358
REMARK INTER + INTRA:          -5.636
REMARK INTER:                  -8.612
REMARK INTRA:                   2.976
REMARK UNBOUND:                 2.980
REMARK  2 active torsions:
REMARK  status: ('A' for Active; 'I' for Inactive)
REMARK    1  A    between atoms: O_3  and  C_17 
REMARK    2  A    between atoms: O_4  and  C_21 
ROOT
ATOM      1  O   UNL d   1       5.632  42.713  45.978  0.00  0.00    -0.323 OA
ATOM      2  O   UNL d   1       5.767  41.652  47.269  0.00  0.00    -0.323 OA
ATOM      3  N   UNL d   1       9.591  40.998  44.593  0.00  0.00    -0.400 N 
ATOM      4  C   UNL d   1       8.797  41.602  44.523  0.00  0.00     0.117 A 
ATOM      5  C   UNL d   1       8.699  42.267  43.727  0.00  0.00     0.069 A 
ATOM      6  C   UNL d   1       8.084  41.573  45.224  0.00  0.00    -0.026 A 
ATOM      7  C   UNL d   1       9.671  40.365  45.363  0.00  0.00     0.122 A 
ATOM      8  C   UNL d   1      10.341  41.017  43.871  0.00  0.00     0.160 A 
ATOM      9  C   UNL d   1       8.958  40.336  46.063  0.00  0.00     0.058 A 
ATOM     10  C   UNL d   1       8.164  40.940  45.994  0.00  0.00    -0.045 A 
ATOM     11  C   UNL d   1       9.438  42.303  42.994  0.00  0.00    -0.045 A 
ATOM     12  C   UNL d   1      10.264  41.674  43.067  0.00  0.00     0.002 A 
ATOM     13  C   UNL d   1       7.262  42.209  45.138  0.00  0.00     0.049 A 
ATOM     14  C   UNL d   1       7.429  40.899  46.731  0.00  0.00     0.047 A 
ATOM     15  C   UNL d   1      11.046  41.693  42.315  0.00  0.00     0.110 A 
ATOM     16  C   UNL d   1       9.336  42.995  42.165  0.00  0.00     0.011 A 
ATOM     17  C   UNL d   1       6.515  42.185  45.863  0.00  0.00     0.105 A 
ATOM     18  C   UNL d   1       6.599  41.525  46.665  0.00  0.00     0.105 A 
ATOM     19  C   UNL d   1      10.967  42.377  41.477  0.00  0.00     0.102 A 
ATOM     20  C   UNL d   1      10.105  43.032  41.401  0.00  0.00     0.040 A 
ATOM     21  C   UNL d   1       5.171  42.384  46.845  0.00  0.00     0.352 A 
ENDROOT
BRANCH  15  22
ATOM     22  O   UNL d   1      11.836  41.084  42.394  0.00  0.00    -0.352 OA
ATOM     23  C   UNL d   1      11.813  40.177  41.973  0.00  0.00     0.210 C 
ENDBRANCH  15  22
BRANCH  19  24
ATOM     24  O   UNL d   1      11.681  42.403  40.778  0.00  0.00    -0.353 OA
ATOM     25  C   UNL d   1      11.783  43.209  40.195  0.00  0.00     0.210 C 
ENDBRANCH  19  24
TORSDOF 2
ENDMDL
MODEL 4
REMARK VINA RESULT:    -7.635      1.883      5.822
REMARK INTER + INTRA:          -5.548
REMARK INTER:                  -8.524
REMARK INTRA:                   2.975
REMARK UNBOUND:                 2.980
REMARK  2 active torsions:
REMARK  status: ('A' for Active; 'I' for Inactive)
REMARK    1  A    between atoms: O_3  and  C_17 
REMARK    2  A    between atoms: O_4  and  C_21 
ROOT
ATOM      1  O   UNL d   1       5.021  43.033  39.940  0.00  0.00    -0.323 OA
ATOM      2  O   UNL d   1       6.288  43.246  38.862  0.00  0.00    -0.323 OA
ATOM      3  N   UNL d   1       8.229  42.086  42.996  0.00  0.00    -0.400 N 
ATOM      4  C   UNL d   1       7.286  42.212  42.690  0.00  0.00     0.117 A 
ATOM      5  C   UNL d   1       6.488  42.084  43.348  0.00  0.00     0.069 A 
ATOM      6  C   UNL d   1       7.098  42.465  41.741  0.00  0.00    -0.026 A 
ATOM      7  C   UNL d   1       8.985  42.212  42.353  0.00  0.00     0.122 A 
ATOM      8  C   UNL d   1       8.441  41.822  43.981  0.00  0.00     0.160 A 
ATOM      9  C   UNL d   1       8.797  42.465  41.404  0.00  0.00     0.058 A 
ATOM     10  C   UNL d   1       7.853  42.592  41.098  0.00  0.00    -0.045 A 
ATOM     11  C   UNL d   1       6.677  41.820  44.338  0.00  0.00    -0.045 A 
ATOM     12  C   UNL d   1       7.659  41.688  44.657  0.00  0.00     0.002 A 
ATOM     13  C   UNL d   1       6.109  42.594  41.437  0.00  0.00     0.049 A 
ATOM     14  C   UNL d   1       7.672  42.856  40.107  0.00  0.00     0.047 A 
ATOM     15  C   UNL d   1       7.880  41.414  45.683  0.00  0.00     0.110 A 
ATOM     16  C   UNL d   1       5.846  41.687  45.023  0.00  0.00     0.011 A 
ATOM     17  C   UNL d   1       5.905  42.858  40.450  0.00  0.00     0.105 A 
ATOM     18  C   UNL d   1       6.692  42.989  39.781  0.00  0.00     0.105 A 
ATOM     19  C   UNL d   1       7.066  41.275  46.387  0.00  0.00     0.102 A 
ATOM     20  C   UNL d   1       6.042  41.412  46.055  0.00  0.00     0.040 A 
ATOM     21  C   UNL d   1       5.258  43.273  38.961  0.00  0.00     0.352 A 
ENDROOT
BRANCH  15  22
ATOM     22  O   UNL d   1       8.827  41.290  45.979  0.00  0.00    -0.352 OA
ATOM     23  C   UNL d   1       9.252  40.386  45.930  0.00  0.00     0.210 C 
ENDBRANCH  15  22
BRANCH  19  24
ATOM     24  O   UNL d   1       7.258  41.021  47.335  0.00  0.00    -0.353 OA
ATOM     25  C   UNL d   1       6.524  41.031  48.014  0.00  0.00     0.210 C 
ENDBRANCH  19  24
TORSDOF 2
ENDMDL
MODEL 5
REMARK VINA RESULT:    -7.518      1.753      3.128
REMARK INTER + INTRA:          -5.417
REMARK INTER:                  -8.415
REMARK INTRA:                   2.999
REMARK UNBOUND:                 2.980
REMARK  2 active torsions:
REMARK  status: ('A' for Active; 'I' for Inactive)
REMARK    1  A    between atoms: O_3  and  C_17 
REMARK    2  A    between atoms: O_4  and  C_21 
ROOT
ATOM      1  O   UNL d   1       5.166  42.106  46.005  0.00  0.00    -0.323 OA
ATOM      2  O   UNL d   1       6.469  42.028  47.057  0.00  0.00    -0.323 OA
ATOM      3  N   UNL d   1       8.270  42.476  42.725  0.00  0.00    -0.400 N 
ATOM      4  C   UNL d   1       7.337  42.426  43.081  0.00  0.00     0.117 A 
ATOM      5  C   UNL d   1       6.517  42.473  42.440  0.00  0.00     0.069 A 
ATOM      6  C   UNL d   1       7.181  42.328  44.064  0.00  0.00    -0.026 A 
ATOM      7  C   UNL d   1       9.047  42.429  43.353  0.00  0.00     0.122 A 
ATOM      8  C   UNL d   1       8.448  42.578  41.704  0.00  0.00     0.160 A 
ATOM      9  C   UNL d   1       8.892  42.332  44.336  0.00  0.00     0.058 A 
ATOM     10  C   UNL d   1       7.958  42.282  44.691  0.00  0.00    -0.045 A 
ATOM     11  C   UNL d   1       6.671  42.574  41.415  0.00  0.00    -0.045 A 
ATOM     12  C   UNL d   1       7.643  42.627  41.045  0.00  0.00     0.002 A 
ATOM     13  C   UNL d   1       6.203  42.277  44.420  0.00  0.00     0.049 A 
ATOM     14  C   UNL d   1       7.812  42.180  45.718  0.00  0.00     0.047 A 
ATOM     15  C   UNL d   1       7.828  42.733  39.981  0.00  0.00     0.110 A 
ATOM     16  C   UNL d   1       5.817  42.624  40.748  0.00  0.00     0.011 A 
ATOM     17  C   UNL d   1       6.032  42.176  45.442  0.00  0.00     0.105 A 
ATOM     18  C   UNL d   1       6.842  42.127  46.096  0.00  0.00     0.105 A 
ATOM     19  C   UNL d   1       6.990  42.784  39.294  0.00  0.00     0.102 A 
ATOM     20  C   UNL d   1       5.978  42.729  39.680  0.00  0.00     0.040 A 
ATOM     21  C   UNL d   1       5.436  42.015  47.001  0.00  0.00     0.352 A 
ENDROOT
BRANCH  15  22
ATOM     22  O   UNL d   1       8.766  42.782  39.636  0.00  0.00    -0.352 OA
ATOM     23  C   UNL d   1       9.258  41.944  39.403  0.00  0.00     0.210 C 
ENDBRANCH  15  22
BRANCH  19  24
ATOM     24  O   UNL d   1       7.150  42.881  38.312  0.00  0.00    -0.353 OA
ATOM     25  C   UNL d   1       6.378  42.877  37.676  0.00  0.00     0.210 C 
ENDBRANCH  19  24
TORSDOF 2
ENDMDL
