MODEL 1
REMARK VINA RESULT:   -11.354      0.000      0.000
REMARK INTER + INTRA:         -12.687
REMARK INTER:                 -14.002
REMARK INTRA:                   1.315
REMARK UNBOUND:                 1.322
REMARK  6 active torsions:
REMARK  status: ('A' for Active; 'I' for Inactive)
REMARK    1  A    between atoms: C_22  and  O_1 
REMARK    2  A    between atoms: C_24  and  O_2 
REMARK    3  A    between atoms: O_3  and  C_30 
REMARK    4  A    between atoms: O_4  and  C_33 
REMARK    5  A    between atoms: C_14  and  C_30 
REMARK    6  A    between atoms: C_19  and  C_33 
ROOT
ATOM      1  C   UNL d   1      43.719  11.361  11.931  0.00  0.00    -0.028 A 
ATOM      2  C   UNL d   1      43.451  10.881  11.095  0.00  0.00     0.007 A 
ATOM      3  C   UNL d   1      43.793   9.917  10.899  0.00  0.00    -0.033 A 
ATOM      4  C   UNL d   1      43.383  12.286  12.106  0.00  0.00    -0.013 A 
ATOM      5  C   UNL d   1      44.423   9.446  11.581  0.00  0.00     0.007 A 
ATOM      6  C   UNL d   1      44.348  10.909  12.627  0.00  0.00     0.011 A 
ATOM      7  C   UNL d   1      42.779  12.732  11.446  0.00  0.00    -0.069 A 
ATOM      8  C   UNL d   1      44.702   9.946  12.452  0.00  0.00     0.007 A 
ATOM      9  C   UNL d   1      44.792   8.442  11.398  0.00  0.00     0.010 A 
ATOM     10  C   UNL d   1      42.420  13.695  11.615  0.00  0.00     0.038 A 
ATOM     11  C   UNL d   1      42.847  11.327  10.435  0.00  0.00     0.033 A 
ATOM     12  C   UNL d   1      43.489   9.417   9.985  0.00  0.00     0.044 A 
ATOM     13  C   UNL d   1      43.671  12.772  12.981  0.00  0.00     0.016 A 
ATOM     14  C   UNL d   1      42.696  14.201  12.483  0.00  0.00     0.053 A 
ATOM     15  C   UNL d   1      44.157  11.540  12.812  0.00  0.00     0.016 C 
ATOM     16  C   UNL d   1      43.325  13.736  13.171  0.00  0.00     0.022 A 
ATOM     17  C   UNL d   1      44.501   7.922  10.492  0.00  0.00     0.157 A 
ATOM     18  C   UNL d   1      42.511  12.252  10.610  0.00  0.00    -0.022 A 
ATOM     19  C   UNL d   1      43.845   8.412   9.780  0.00  0.00     0.148 A 
ATOM     20  C   UNL d   1      43.189  10.369  10.243  0.00  0.00     0.016 C 
ATOM     21  C   UNL d   1      43.938  12.144  12.926  0.00  0.00     0.021 C 
ATOM     22  C   UNL d   1      41.766  14.159  10.884  0.00  0.00    -0.005 A 
ATOM     23  C   UNL d   1      42.335  15.205  12.681  0.00  0.00     0.021 A 
ATOM     24  C   UNL d   1      41.393  15.162  11.060  0.00  0.00    -0.014 A 
ATOM     25  C   UNL d   1      45.294   8.465  12.263  0.00  0.00     0.020 C 
ATOM     26  C   UNL d   1      41.679  15.689  11.964  0.00  0.00     0.006 A 
ATOM     27  C   UNL d   1      41.508  13.664  10.053  0.00  0.00     0.011 C 
ATOM     28  C   UNL d   1      40.789  15.598  10.393  0.00  0.00     0.010 C 
ENDROOT
BRANCH   9  29
ATOM     29  C   UNL d   1      45.336   7.653  11.681  0.00  0.00     0.176 C 
BRANCH  29  30
ATOM     30  O   UNL d   1      46.116   7.776  12.294  0.00  0.00    -0.400 OA
ATOM     31  H   UNL d   1      46.053   7.668  12.902  0.00  0.00     0.209 HD
ENDBRANCH  29  30
ENDBRANCH   9  29
BRANCH  17  32
ATOM     32  O   UNL d   1      44.835   6.997  10.313  0.00  0.00    -0.392 OA
ATOM     33  H   UNL d   1      44.918   6.804   9.729  0.00  0.00     0.210 HD
ENDBRANCH  17  32
BRANCH  19  34
ATOM     34  O   UNL d   1      43.570   7.942   8.942  0.00  0.00    -0.393 OA
ATOM     35  H   UNL d   1      43.294   7.388   8.973  0.00  0.00     0.210 HD
ENDBRANCH  19  34
BRANCH  14  36
ATOM     36  C   UNL d   1      42.959  14.687  13.316  0.00  0.00     0.149 C 
ATOM     37  O   UNL d   1      43.798  15.232  13.332  0.00  0.00    -0.649 OA
BRANCH  36  38
ATOM     38  O   UNL d   1      42.386  14.628  14.133  0.00  0.00    -0.776 OA
ATOM     39  H   UNL d   1      41.893  14.999  14.192  0.00  0.00     0.167 HD
ENDBRANCH  36  38
ENDBRANCH  14  36
TORSDOF 6
ENDMDL
MODEL 2
REMARK VINA RESULT:   -11.012     26.685     29.519
REMARK INTER + INTRA:         -12.266
REMARK INTER:                 -13.626
REMARK INTRA:                   1.361
REMARK UNBOUND:                 1.322
REMARK  6 active torsions:
REMARK  status: ('A' for Active; 'I' for Inactive)
REMARK    1  A    between atoms: C_22  and  O_1 
REMARK    2  A    between atoms: C_24  and  O_2 
REMARK    3  A    between atoms: O_3  and  C_30 
REMARK    4  A    between atoms: O_4  and  C_33 
REMARK    5  A    between atoms: C_14  and  C_30 
REMARK    6  A    between atoms: C_19  and  C_33 
ROOT
ATOM      1  C   UNL d   1      42.271  27.752  35.556  0.00  0.00    -0.028 A 
ATOM      2  C   UNL d   1      42.417  27.354  36.462  0.00  0.00     0.007 A 
ATOM      3  C   UNL d   1      42.657  26.347  36.571  0.00  0.00    -0.033 A 
ATOM      4  C   UNL d   1      42.042  28.721  35.466  0.00  0.00    -0.013 A 
ATOM      5  C   UNL d   1      42.747  25.745  35.727  0.00  0.00     0.007 A 
ATOM      6  C   UNL d   1      42.356  27.169  34.697  0.00  0.00     0.011 A 
ATOM      7  C   UNL d   1      41.957  29.292  36.282  0.00  0.00    -0.069 A 
ATOM      8  C   UNL d   1      42.595  26.159  34.783  0.00  0.00     0.007 A 
ATOM      9  C   UNL d   1      42.996  24.692  35.816  0.00  0.00     0.010 A 
ATOM     10  C   UNL d   1      41.718  30.304  36.205  0.00  0.00     0.038 A 
ATOM     11  C   UNL d   1      42.332  27.926  37.278  0.00  0.00     0.033 A 
ATOM     12  C   UNL d   1      42.810  25.938  37.565  0.00  0.00     0.044 A 
ATOM     13  C   UNL d   1      41.893  29.120  34.515  0.00  0.00     0.016 A 
ATOM     14  C   UNL d   1      41.565  30.725  35.264  0.00  0.00     0.053 A 
ATOM     15  C   UNL d   1      42.197  27.821  34.561  0.00  0.00     0.016 C 
ATOM     16  C   UNL d   1      41.653  30.129  34.414  0.00  0.00     0.022 A 
ATOM     17  C   UNL d   1      43.154  24.262  36.798  0.00  0.00     0.157 A 
ATOM     18  C   UNL d   1      42.102  28.895  37.188  0.00  0.00    -0.022 A 
ATOM     19  C   UNL d   1      43.060  24.888  37.679  0.00  0.00     0.148 A 
ATOM     20  C   UNL d   1      42.570  26.925  37.383  0.00  0.00     0.016 C 
ATOM     21  C   UNL d   1      42.047  28.453  34.502  0.00  0.00     0.021 C 
ATOM     22  C   UNL d   1      41.632  30.904  37.104  0.00  0.00    -0.005 A 
ATOM     23  C   UNL d   1      41.315  31.775  35.158  0.00  0.00     0.021 A 
ATOM     24  C   UNL d   1      41.383  31.956  37.023  0.00  0.00    -0.014 A 
ATOM     25  C   UNL d   1      42.960  24.596  34.821  0.00  0.00     0.020 C 
ATOM     26  C   UNL d   1      41.224  32.395  36.043  0.00  0.00     0.006 A 
ATOM     27  C   UNL d   1      41.781  30.489  38.002  0.00  0.00     0.011 C 
ATOM     28  C   UNL d   1      41.301  32.519  37.846  0.00  0.00     0.010 C 
ENDROOT
BRANCH   9  29
ATOM     29  C   UNL d   1      43.177  23.805  35.393  0.00  0.00     0.176 C 
BRANCH  29  30
ATOM     30  O   UNL d   1      42.581  23.467  34.665  0.00  0.00    -0.400 OA
ATOM     31  H   UNL d   1      41.981  23.362  34.779  0.00  0.00     0.209 HD
ENDBRANCH  29  30
ENDBRANCH   9  29
BRANCH  17  32
ATOM     32  O   UNL d   1      43.384  23.293  36.893  0.00  0.00    -0.392 OA
ATOM     33  H   UNL d   1      43.966  23.123  37.022  0.00  0.00     0.210 HD
ENDBRANCH  17  32
BRANCH  19  34
ATOM     34  O   UNL d   1      43.203  24.501  38.590  0.00  0.00    -0.393 OA
ATOM     35  H   UNL d   1      42.863  24.018  38.779  0.00  0.00     0.210 HD
ENDBRANCH  19  34
BRANCH  14  36
ATOM     36  C   UNL d   1      41.418  31.129  34.361  0.00  0.00     0.149 C 
ATOM     37  O   UNL d   1      42.192  31.506  33.852  0.00  0.00    -0.649 OA
BRANCH  36  38
ATOM     38  O   UNL d   1      40.500  31.157  33.969  0.00  0.00    -0.776 OA
ATOM     39  H   UNL d   1      40.368  31.559  33.516  0.00  0.00     0.167 HD
ENDBRANCH  36  38
ENDBRANCH  14  36
TORSDOF 6
ENDMDL
MODEL 3
REMARK VINA RESULT:   -10.865     40.491     41.300
REMARK INTER + INTRA:         -12.084
REMARK INTER:                 -13.398
REMARK INTRA:                   1.314
REMARK UNBOUND:                 1.322
REMARK  6 active torsions:
REMARK  status: ('A' for Active; 'I' for Inactive)
REMARK    1  A    between atoms: C_22  and  O_1 
REMARK    2  A    between atoms: C_24  and  O_2 
REMARK    3  A    between atoms: O_3  and  C_30 
REMARK    4  A    between atoms: O_4  and  C_33 
REMARK    5  A    between atoms: C_14  and  C_30 
REMARK    6  A    between atoms: C_19  and  C_33 
ROOT
ATOM      1  C   UNL d   1       3.523   9.433  20.234  0.00  0.00    -0.028 A 
ATOM      2  C   UNL d   1       3.504   8.923  21.094  0.00  0.00     0.007 A 
ATOM      3  C   UNL d   1       3.568   9.417  22.009  0.00  0.00    -0.033 A 
ATOM      4  C   UNL d   1       3.461   8.946  19.363  0.00  0.00    -0.013 A 
ATOM      5  C   UNL d   1       3.653  10.454  22.029  0.00  0.00     0.007 A 
ATOM      6  C   UNL d   1       3.608  10.471  20.229  0.00  0.00     0.011 A 
ATOM      7  C   UNL d   1       3.380   7.949  19.352  0.00  0.00    -0.069 A 
ATOM      8  C   UNL d   1       3.673  10.985  21.133  0.00  0.00     0.007 A 
ATOM      9  C   UNL d   1       3.721  10.990  22.970  0.00  0.00     0.010 A 
ATOM     10  C   UNL d   1       3.314   7.427  18.453  0.00  0.00     0.038 A 
ATOM     11  C   UNL d   1       3.423   7.927  21.083  0.00  0.00     0.033 A 
ATOM     12  C   UNL d   1       3.546   8.843  22.930  0.00  0.00     0.044 A 
ATOM     13  C   UNL d   1       3.482   9.490  18.475  0.00  0.00     0.016 A 
ATOM     14  C   UNL d   1       3.333   7.951  17.553  0.00  0.00     0.053 A 
ATOM     15  C   UNL d   1       3.569  10.205  19.600  0.00  0.00     0.016 C 
ATOM     16  C   UNL d   1       3.418   8.990  17.564  0.00  0.00     0.022 A 
ATOM     17  C   UNL d   1       3.701  10.438  23.903  0.00  0.00     0.157 A 
ATOM     18  C   UNL d   1       3.361   7.440  20.212  0.00  0.00    -0.022 A 
ATOM     19  C   UNL d   1       3.612   9.357  23.883  0.00  0.00     0.148 A 
ATOM     20  C   UNL d   1       3.487   8.420  21.990  0.00  0.00     0.016 C 
ATOM     21  C   UNL d   1       3.529   9.887  19.031  0.00  0.00     0.021 C 
ATOM     22  C   UNL d   1       3.226   6.347  18.466  0.00  0.00    -0.005 A 
ATOM     23  C   UNL d   1       3.266   7.430  16.603  0.00  0.00     0.021 A 
ATOM     24  C   UNL d   1       3.157   5.804  17.529  0.00  0.00    -0.014 A 
ATOM     25  C   UNL d   1       3.779  11.858  22.476  0.00  0.00     0.020 C 
ATOM     26  C   UNL d   1       3.177   6.349  16.591  0.00  0.00     0.006 A 
ATOM     27  C   UNL d   1       3.209   5.853  19.336  0.00  0.00     0.011 C 
ATOM     28  C   UNL d   1       3.076   4.807  17.530  0.00  0.00     0.010 C 
ENDROOT
BRANCH   9  29
ATOM     29  C   UNL d   1       3.804  11.849  23.475  0.00  0.00     0.176 C 
BRANCH  29  30
ATOM     30  O   UNL d   1       4.305  12.617  23.078  0.00  0.00    -0.400 OA
ATOM     31  H   UNL d   1       4.281  13.176  23.346  0.00  0.00     0.209 HD
ENDBRANCH  29  30
ENDBRANCH   9  29
BRANCH  17  32
ATOM     32  O   UNL d   1       3.763  10.921  24.776  0.00  0.00    -0.392 OA
ATOM     33  H   UNL d   1       3.251  11.149  25.042  0.00  0.00     0.210 HD
ENDBRANCH  17  32
BRANCH  19  34
ATOM     34  O   UNL d   1       3.592   8.837  24.737  0.00  0.00    -0.393 OA
ATOM     35  H   UNL d   1       3.302   9.068  25.234  0.00  0.00     0.210 HD
ENDBRANCH  19  34
BRANCH  14  36
ATOM     36  C   UNL d   1       3.351   8.454  16.688  0.00  0.00     0.149 C 
ATOM     37  O   UNL d   1       4.220   8.603  16.216  0.00  0.00    -0.649 OA
BRANCH  36  38
ATOM     38  O   UNL d   1       2.502   8.807  16.297  0.00  0.00    -0.776 OA
ATOM     39  H   UNL d   1       2.340   8.654  15.718  0.00  0.00     0.167 HD
ENDBRANCH  36  38
ENDBRANCH  14  36
TORSDOF 6
ENDMDL
MODEL 4
REMARK VINA RESULT:   -10.694     33.564     37.254
REMARK INTER + INTRA:         -11.873
REMARK INTER:                 -13.189
REMARK INTRA:                   1.316
REMARK UNBOUND:                 1.322
REMARK  6 active torsions:
REMARK  status: ('A' for Active; 'I' for Inactive)
REMARK    1  A    between atoms: C_22  and  O_1 
REMARK    2  A    between atoms: C_24  and  O_2 
REMARK    3  A    between atoms: O_3  and  C_30 
REMARK    4  A    between atoms: O_4  and  C_33 
REMARK    5  A    between atoms: C_14  and  C_30 
REMARK    6  A    between atoms: C_19  and  C_33 
ROOT
ATOM      1  C   UNL d   1      13.411  32.561   9.826  0.00  0.00    -0.028 A 
ATOM      2  C   UNL d   1      13.624  33.079   8.998  0.00  0.00     0.007 A 
ATOM      3  C   UNL d   1      14.605  33.160   8.656  0.00  0.00    -0.033 A 
ATOM      4  C   UNL d   1      12.465  32.492  10.143  0.00  0.00    -0.013 A 
ATOM      5  C   UNL d   1      15.373  32.696   9.183  0.00  0.00     0.007 A 
ATOM      6  C   UNL d   1      14.163  32.088  10.369  0.00  0.00     0.011 A 
ATOM      7  C   UNL d   1      11.732  32.941   9.632  0.00  0.00    -0.069 A 
ATOM      8  C   UNL d   1      15.151  32.155  10.045  0.00  0.00     0.007 A 
ATOM      9  C   UNL d   1      16.402  32.766   8.845  0.00  0.00     0.010 A 
ATOM     10  C   UNL d   1      10.742  32.878   9.950  0.00  0.00     0.038 A 
ATOM     11  C   UNL d   1      12.891  33.528   8.487  0.00  0.00     0.033 A 
ATOM     12  C   UNL d   1      14.812  33.728   7.755  0.00  0.00     0.044 A 
ATOM     13  C   UNL d   1      12.259  31.948  11.008  0.00  0.00     0.016 A 
ATOM     14  C   UNL d   1      10.512  32.339  10.812  0.00  0.00     0.053 A 
ATOM     15  C   UNL d   1      13.542  31.999  10.643  0.00  0.00     0.016 C 
ATOM     16  C   UNL d   1      11.276  31.871  11.344  0.00  0.00     0.022 A 
ATOM     17  C   UNL d   1      16.633  33.328   7.947  0.00  0.00     0.157 A 
ATOM     18  C   UNL d   1      11.945  33.459   8.804  0.00  0.00    -0.022 A 
ATOM     19  C   UNL d   1      15.833  33.813   7.398  0.00  0.00     0.148 A 
ATOM     20  C   UNL d   1      13.866  33.607   8.150  0.00  0.00     0.016 C 
ATOM     21  C   UNL d   1      12.925  31.953  10.850  0.00  0.00     0.021 C 
ATOM     22  C   UNL d   1       9.964  33.373   9.379  0.00  0.00    -0.005 A 
ATOM     23  C   UNL d   1       9.489  32.259  11.162  0.00  0.00     0.021 A 
ATOM     24  C   UNL d   1       8.933  33.307   9.710  0.00  0.00    -0.014 A 
ATOM     25  C   UNL d   1      16.698  32.207   9.620  0.00  0.00     0.020 C 
ATOM     26  C   UNL d   1       8.694  32.747  10.608  0.00  0.00     0.006 A 
ATOM     27  C   UNL d   1      10.196  33.887   8.553  0.00  0.00     0.011 C 
ATOM     28  C   UNL d   1       8.208  33.760   9.191  0.00  0.00     0.010 C 
ENDROOT
BRANCH   9  29
ATOM     29  C   UNL d   1      17.370  32.545   8.961  0.00  0.00     0.176 C 
BRANCH  29  30
ATOM     30  O   UNL d   1      17.645  31.815   9.587  0.00  0.00    -0.400 OA
ATOM     31  H   UNL d   1      17.749  31.942  10.184  0.00  0.00     0.209 HD
ENDBRANCH  29  30
ENDBRANCH   9  29
BRANCH  17  32
ATOM     32  O   UNL d   1      17.578  33.400   7.627  0.00  0.00    -0.392 OA
ATOM     33  H   UNL d   1      17.706  33.344   7.023  0.00  0.00     0.210 HD
ENDBRANCH  17  32
BRANCH  19  34
ATOM     34  O   UNL d   1      16.034  34.333   6.568  0.00  0.00    -0.393 OA
ATOM     35  H   UNL d   1      16.534  34.195   6.229  0.00  0.00     0.210 HD
ENDBRANCH  19  34
BRANCH  14  36
ATOM     36  C   UNL d   1      10.292  31.823  11.639  0.00  0.00     0.149 C 
ATOM     37  O   UNL d   1      10.136  30.836  11.585  0.00  0.00    -0.649 OA
BRANCH  36  38
ATOM     38  O   UNL d   1      10.226  32.292  12.519  0.00  0.00    -0.776 OA
ATOM     39  H   UNL d   1       9.836  32.082  12.953  0.00  0.00     0.167 HD
ENDBRANCH  36  38
ENDBRANCH  14  36
TORSDOF 6
ENDMDL
MODEL 5
REMARK VINA RESULT:   -10.684     39.459     40.218
REMARK INTER + INTRA:         -11.861
REMARK INTER:                 -13.171
REMARK INTRA:                   1.310
REMARK UNBOUND:                 1.322
REMARK  6 active torsions:
REMARK  status: ('A' for Active; 'I' for Inactive)
REMARK    1  A    between atoms: C_22  and  O_1 
REMARK    2  A    between atoms: C_24  and  O_2 
REMARK    3  A    between atoms: O_3  and  C_30 
REMARK    4  A    between atoms: O_4  and  C_33 
REMARK    5  A    between atoms: C_14  and  C_30 
REMARK    6  A    between atoms: C_19  and  C_33 
ROOT
ATOM      1  C   UNL d   1      11.197  35.052  16.216  0.00  0.00    -0.028 A 
ATOM      2  C   UNL d   1      10.871  34.109  16.155  0.00  0.00     0.007 A 
ATOM      3  C   UNL d   1      10.611  33.691  15.236  0.00  0.00    -0.033 A 
ATOM      4  C   UNL d   1      11.444  35.439  17.104  0.00  0.00    -0.013 A 
ATOM      5  C   UNL d   1      10.690  34.264  14.371  0.00  0.00     0.007 A 
ATOM      6  C   UNL d   1      11.284  35.643  15.363  0.00  0.00     0.011 A 
ATOM      7  C   UNL d   1      11.365  34.883  17.931  0.00  0.00    -0.069 A 
ATOM      8  C   UNL d   1      11.029  35.247  14.434  0.00  0.00     0.007 A 
ATOM      9  C   UNL d   1      10.424  33.851  13.403  0.00  0.00     0.010 A 
ATOM     10  C   UNL d   1      11.618  35.272  18.864  0.00  0.00     0.038 A 
ATOM     11  C   UNL d   1      10.792  33.552  16.982  0.00  0.00     0.033 A 
ATOM     12  C   UNL d   1      10.260  32.665  15.195  0.00  0.00     0.044 A 
ATOM     13  C   UNL d   1      11.781  36.424  17.152  0.00  0.00     0.016 A 
ATOM     14  C   UNL d   1      11.958  36.254  18.935  0.00  0.00     0.053 A 
ATOM     15  C   UNL d   1      11.470  35.972  15.935  0.00  0.00     0.016 C 
ATOM     16  C   UNL d   1      12.040  36.834  18.073  0.00  0.00     0.022 A 
ATOM     17  C   UNL d   1      10.071  32.828  13.336  0.00  0.00     0.157 A 
ATOM     18  C   UNL d   1      11.039  33.939  17.870  0.00  0.00    -0.022 A 
ATOM     19  C   UNL d   1       9.988  32.231  14.238  0.00  0.00     0.148 A 
ATOM     20  C   UNL d   1      10.534  33.141  16.068  0.00  0.00     0.016 C 
ATOM     21  C   UNL d   1      11.631  36.225  16.514  0.00  0.00     0.021 C 
ATOM     22  C   UNL d   1      11.524  34.650  19.747  0.00  0.00    -0.005 A 
ATOM     23  C   UNL d   1      12.227  36.682  19.896  0.00  0.00     0.021 A 
ATOM     24  C   UNL d   1      11.788  35.055  20.718  0.00  0.00    -0.014 A 
ATOM     25  C   UNL d   1      10.659  34.719  12.964  0.00  0.00     0.020 C 
ATOM     26  C   UNL d   1      12.142  36.078  20.793  0.00  0.00     0.006 A 
ATOM     27  C   UNL d   1      11.196  33.708  19.667  0.00  0.00     0.011 C 
ATOM     28  C   UNL d   1      11.705  34.490  21.539  0.00  0.00     0.010 C 
ENDROOT
BRANCH   9  29
ATOM     29  C   UNL d   1      10.329  33.953  12.413  0.00  0.00     0.176 C 
BRANCH  29  30
ATOM     30  O   UNL d   1      10.219  34.862  12.011  0.00  0.00    -0.400 OA
ATOM     31  H   UNL d   1       9.702  35.003  11.699  0.00  0.00     0.209 HD
ENDBRANCH  29  30
ENDBRANCH   9  29
BRANCH  17  32
ATOM     32  O   UNL d   1       9.824  32.437  12.450  0.00  0.00    -0.392 OA
ATOM     33  H   UNL d   1      10.107  32.633  11.934  0.00  0.00     0.210 HD
ENDBRANCH  17  32
BRANCH  19  34
ATOM     34  O   UNL d   1       9.664  31.286  14.189  0.00  0.00    -0.393 OA
ATOM     35  H   UNL d   1       9.056  31.168  14.173  0.00  0.00     0.210 HD
ENDBRANCH  19  34
BRANCH  14  36
ATOM     36  C   UNL d   1      12.284  37.197  19.005  0.00  0.00     0.149 C 
ATOM     37  O   UNL d   1      13.263  37.392  18.946  0.00  0.00    -0.649 OA
BRANCH  36  38
ATOM     38  O   UNL d   1      11.632  37.944  19.132  0.00  0.00    -0.776 OA
ATOM     39  H   UNL d   1      11.335  38.183  18.644  0.00  0.00     0.167 HD
ENDBRANCH  36  38
ENDBRANCH  14  36
TORSDOF 6
ENDMDL
