MODEL 1
REMARK VINA RESULT:    -6.280      0.000      0.000
REMARK INTER + INTRA:          -6.280
REMARK INTER:                  -6.280
REMARK INTRA:                   0.000
REMARK UNBOUND:                 0.000
REMARK  0 active torsions:
REMARK  status: ('A' for Active; 'I' for Inactive)
ROOT
ATOM      1  O   UNL d   1      33.687  16.832  32.606  0.00  0.00    -0.265 OA
ATOM      2  O   UNL d   1      35.087  13.820  33.590  0.00  0.00    -0.246 OA
ATOM      3  N   UNL d   1      33.461  14.208  34.043  0.00  0.00    -0.286 N 
ATOM      4  N   UNL d   1      31.895  16.192  33.651  0.00  0.00    -0.338 N 
ATOM      5  N   UNL d   1      34.387  15.326  33.098  0.00  0.00    -0.269 N 
ATOM      6  N   UNL d   1      31.774  14.784  34.422  0.00  0.00    -0.223 NA
ATOM      7  C   UNL d   1      32.760  15.713  33.550  0.00  0.00     0.151 A 
ATOM      8  C   UNL d   1      32.685  14.839  34.029  0.00  0.00     0.167 A 
ATOM      9  C   UNL d   1      33.611  15.957  33.085  0.00  0.00     0.282 A 
ATOM     10  C   UNL d   1      34.312  14.451  33.577  0.00  0.00     0.332 A 
ATOM     11  C   UNL d   1      31.286  15.618  34.189  0.00  0.00     0.212 A 
ATOM     12  C   UNL d   1      33.385  13.333  34.521  0.00  0.00     0.163 C 
ATOM     13  C   UNL d   1      31.675  17.092  33.278  0.00  0.00     0.157 C 
ATOM     14  C   UNL d   1      35.238  15.569  32.633  0.00  0.00     0.164 C 
ENDROOT
TORSDOF 0
ENDMDL
MODEL 2
REMARK VINA RESULT:    -6.134      1.256      2.723
REMARK INTER + INTRA:          -6.134
REMARK INTER:                  -6.134
REMARK INTRA:                   0.000
REMARK UNBOUND:                 0.000
REMARK  0 active torsions:
REMARK  status: ('A' for Active; 'I' for Inactive)
ROOT
ATOM      1  O   UNL d   1      33.675  16.749  31.976  0.00  0.00    -0.265 OA
ATOM      2  O   UNL d   1      30.914  15.935  33.903  0.00  0.00    -0.246 OA
ATOM      3  N   UNL d   1      32.425  15.133  34.173  0.00  0.00    -0.286 N 
ATOM      4  N   UNL d   1      34.758  15.267  33.134  0.00  0.00    -0.338 N 
ATOM      5  N   UNL d   1      32.294  16.342  32.940  0.00  0.00    -0.269 N 
ATOM      6  N   UNL d   1      34.087  14.400  34.313  0.00  0.00    -0.223 NA
ATOM      7  C   UNL d   1      33.805  15.540  33.210  0.00  0.00     0.151 A 
ATOM      8  C   UNL d   1      33.389  15.002  33.942  0.00  0.00     0.167 A 
ATOM      9  C   UNL d   1      33.258  16.210  32.708  0.00  0.00     0.282 A 
ATOM     10  C   UNL d   1      31.878  15.803  33.672  0.00  0.00     0.332 A 
ATOM     11  C   UNL d   1      34.932  14.563  33.815  0.00  0.00     0.212 A 
ATOM     12  C   UNL d   1      32.008  14.595  34.906  0.00  0.00     0.163 C 
ATOM     13  C   UNL d   1      35.425  15.635  32.487  0.00  0.00     0.157 C 
ATOM     14  C   UNL d   1      31.747  17.012  32.438  0.00  0.00     0.164 C 
ENDROOT
TORSDOF 0
ENDMDL
MODEL 3
REMARK VINA RESULT:    -6.108      1.025      2.144
REMARK INTER + INTRA:          -6.108
REMARK INTER:                  -6.108
REMARK INTRA:                   0.000
REMARK UNBOUND:                 0.000
REMARK  0 active torsions:
REMARK  status: ('A' for Active; 'I' for Inactive)
ROOT
ATOM      1  O   UNL d   1      32.186  14.057  34.686  0.00  0.00    -0.265 OA
ATOM      2  O   UNL d   1      35.454  14.241  33.550  0.00  0.00    -0.246 OA
ATOM      3  N   UNL d   1      34.320  15.482  33.132  0.00  0.00    -0.286 N 
ATOM      4  N   UNL d   1      31.850  15.923  33.629  0.00  0.00    -0.338 N 
ATOM      5  N   UNL d   1      33.820  14.149  34.118  0.00  0.00    -0.269 N 
ATOM      6  N   UNL d   1      32.996  16.688  32.795  0.00  0.00    -0.223 NA
ATOM      7  C   UNL d   1      32.686  15.390  33.699  0.00  0.00     0.151 A 
ATOM      8  C   UNL d   1      33.398  15.865  33.181  0.00  0.00     0.167 A 
ATOM      9  C   UNL d   1      32.897  14.532  34.168  0.00  0.00     0.282 A 
ATOM     10  C   UNL d   1      34.531  14.624  33.600  0.00  0.00     0.332 A 
ATOM     11  C   UNL d   1      32.041  16.724  33.071  0.00  0.00     0.212 A 
ATOM     12  C   UNL d   1      35.032  15.957  32.614  0.00  0.00     0.163 C 
ATOM     13  C   UNL d   1      30.971  15.695  34.046  0.00  0.00     0.157 C 
ATOM     14  C   UNL d   1      34.031  13.291  34.586  0.00  0.00     0.164 C 
ENDROOT
TORSDOF 0
ENDMDL
MODEL 4
REMARK VINA RESULT:    -5.545     22.207     23.516
REMARK INTER + INTRA:          -5.545
REMARK INTER:                  -5.545
REMARK INTRA:                   0.000
REMARK UNBOUND:                 0.000
REMARK  0 active torsions:
REMARK  status: ('A' for Active; 'I' for Inactive)
ROOT
ATOM      1  O   UNL d   1      41.416  14.809  13.758  0.00  0.00    -0.265 OA
ATOM      2  O   UNL d   1      40.830  16.727  10.934  0.00  0.00    -0.246 OA
ATOM      3  N   UNL d   1      42.329  15.877  11.108  0.00  0.00    -0.286 N 
ATOM      4  N   UNL d   1      43.347  14.345  12.884  0.00  0.00    -0.338 N 
ATOM      5  N   UNL d   1      41.123  15.768  12.346  0.00  0.00    -0.269 N 
ATOM      6  N   UNL d   1      43.838  14.918  11.462  0.00  0.00    -0.223 NA
ATOM      7  C   UNL d   1      42.622  14.918  12.520  0.00  0.00     0.151 A 
ATOM      8  C   UNL d   1      42.926  15.274  11.636  0.00  0.00     0.167 A 
ATOM      9  C   UNL d   1      41.720  15.165  12.875  0.00  0.00     0.282 A 
ATOM     10  C   UNL d   1      41.427  16.124  11.462  0.00  0.00     0.332 A 
ATOM     11  C   UNL d   1      44.098  14.344  12.232  0.00  0.00     0.212 A 
ATOM     12  C   UNL d   1      42.634  16.233  10.224  0.00  0.00     0.163 C 
ATOM     13  C   UNL d   1      43.327  13.854  13.755  0.00  0.00     0.157 C 
ATOM     14  C   UNL d   1      40.221  16.015  12.701  0.00  0.00     0.164 C 
ENDROOT
TORSDOF 0
ENDMDL
MODEL 5
REMARK VINA RESULT:    -5.496     22.174     23.433
REMARK INTER + INTRA:          -5.496
REMARK INTER:                  -5.496
REMARK INTRA:                   0.000
REMARK UNBOUND:                 0.000
REMARK  0 active torsions:
REMARK  status: ('A' for Active; 'I' for Inactive)
ROOT
ATOM      1  O   UNL d   1      42.271  14.182  10.150  0.00  0.00    -0.265 OA
ATOM      2  O   UNL d   1      43.988  13.202  12.995  0.00  0.00    -0.246 OA
ATOM      3  N   UNL d   1      42.684  14.336  13.118  0.00  0.00    -0.286 N 
ATOM      4  N   UNL d   1      41.072  15.430  11.460  0.00  0.00    -0.338 N 
ATOM      5  N   UNL d   1      43.129  13.692  11.573  0.00  0.00    -0.269 N 
ATOM      6  N   UNL d   1      41.294  15.512  13.053  0.00  0.00    -0.223 NA
ATOM      7  C   UNL d   1      41.826  14.826  11.695  0.00  0.00     0.151 A 
ATOM      8  C   UNL d   1      41.964  14.877  12.684  0.00  0.00     0.167 A 
ATOM      9  C   UNL d   1      42.409  14.233  11.139  0.00  0.00     0.282 A 
ATOM     10  C   UNL d   1      43.267  13.743  12.562  0.00  0.00     0.332 A 
ATOM     11  C   UNL d   1      40.744  15.853  12.298  0.00  0.00     0.212 A 
ATOM     12  C   UNL d   1      42.822  14.387  14.107  0.00  0.00     0.163 C 
ATOM     13  C   UNL d   1      40.708  15.584  10.543  0.00  0.00     0.157 C 
ATOM     14  C   UNL d   1      43.712  13.099  11.017  0.00  0.00     0.164 C 
ENDROOT
TORSDOF 0
ENDMDL
