MODEL 1
REMARK VINA RESULT:    -8.373      0.000      0.000
REMARK INTER + INTRA:          -9.578
REMARK INTER:                  -9.588
REMARK INTRA:                   0.010
REMARK UNBOUND:                 0.019
REMARK  4 active torsions:
REMARK  status: ('A' for Active; 'I' for Inactive)
REMARK    1  A    between atoms: O_1  and  C_13 
REMARK    2  A    between atoms: O_4  and  C_16 
REMARK    3  A    between atoms: O_5  and  C_18 
REMARK    4  A    between atoms: C_14  and  C_18 
ROOT
ATOM      1  O   UNL d   1      33.744   8.474  16.724  0.00  0.00    -0.286 OA
ATOM      2  O   UNL d   1      36.121  11.280  15.151  0.00  0.00    -0.287 OA
ATOM      3  C   UNL d   1      34.803  10.838  16.183  0.00  0.00     0.032 A 
ATOM      4  C   UNL d   1      34.209  10.136  16.577  0.00  0.00     0.062 A 
ATOM      5  C   UNL d   1      35.063   8.917  15.691  0.00  0.00     0.062 A 
ATOM      6  C   UNL d   1      35.657   9.618  15.298  0.00  0.00     0.032 A 
ATOM      7  C   UNL d   1      34.339   9.175  16.331  0.00  0.00     0.199 A 
ATOM      8  C   UNL d   1      35.527  10.579  15.544  0.00  0.00     0.194 A 
ATOM      9  C   UNL d   1      34.680  11.842  16.430  0.00  0.00     0.026 A 
ATOM     10  C   UNL d   1      33.451  10.391  17.244  0.00  0.00     0.081 A 
ATOM     11  C   UNL d   1      33.928  12.120  17.095  0.00  0.00    -0.031 A 
ATOM     12  C   UNL d   1      33.309  11.389  17.505  0.00  0.00     0.046 A 
ATOM     13  C   UNL d   1      35.186   7.913  15.444  0.00  0.00     0.080 A 
ATOM     14  C   UNL d   1      36.416   9.364  14.631  0.00  0.00     0.017 A 
ATOM     15  C   UNL d   1      35.938   7.635  14.779  0.00  0.00     0.037 A 
ATOM     16  C   UNL d   1      36.557   8.366  14.370  0.00  0.00     0.004 A 
ENDROOT
BRANCH  11  17
ATOM     17  C   UNL d   1      33.801  13.081  17.339  0.00  0.00     0.203 C 
BRANCH  17  18
ATOM     18  O   UNL d   1      33.755  13.776  16.621  0.00  0.00    -0.396 OA
ATOM     19  H   UNL d   1      33.504  13.638  16.071  0.00  0.00     0.209 HD
ENDBRANCH  17  18
ENDBRANCH  11  17
BRANCH  10  20
ATOM     20  O   UNL d   1      32.862   9.681  17.631  0.00  0.00    -0.360 OA
ATOM     21  H   UNL d   1      32.935   9.089  17.457  0.00  0.00     0.217 HD
ENDBRANCH  10  20
BRANCH  13  22
ATOM     22  O   UNL d   1      34.586   7.219  15.844  0.00  0.00    -0.360 OA
ATOM     23  H   UNL d   1      34.677   6.619  15.714  0.00  0.00     0.217 HD
ENDBRANCH  13  22
TORSDOF 4
ENDMDL
MODEL 2
REMARK VINA RESULT:    -8.333      0.880      2.265
REMARK INTER + INTRA:          -9.532
REMARK INTER:                  -9.606
REMARK INTRA:                   0.074
REMARK UNBOUND:                 0.019
REMARK  4 active torsions:
REMARK  status: ('A' for Active; 'I' for Inactive)
REMARK    1  A    between atoms: O_1  and  C_13 
REMARK    2  A    between atoms: O_4  and  C_16 
REMARK    3  A    between atoms: O_5  and  C_18 
REMARK    4  A    between atoms: C_14  and  C_18 
ROOT
ATOM      1  O   UNL d   1      36.093  10.714  15.185  0.00  0.00    -0.286 OA
ATOM      2  O   UNL d   1      33.247   8.621  17.061  0.00  0.00    -0.287 OA
ATOM      3  C   UNL d   1      33.996  10.139  16.692  0.00  0.00     0.032 A 
ATOM      4  C   UNL d   1      34.707  10.662  16.223  0.00  0.00     0.062 A 
ATOM      5  C   UNL d   1      35.344   9.197  15.554  0.00  0.00     0.062 A 
ATOM      6  C   UNL d   1      34.632   8.673  16.023  0.00  0.00     0.032 A 
ATOM      7  C   UNL d   1      35.381  10.191  15.654  0.00  0.00     0.199 A 
ATOM      8  C   UNL d   1      33.958   9.145  16.592  0.00  0.00     0.194 A 
ATOM      9  C   UNL d   1      33.286  10.615  17.288  0.00  0.00     0.026 A 
ATOM     10  C   UNL d   1      34.758  11.698  16.317  0.00  0.00     0.081 A 
ATOM     11  C   UNL d   1      33.319  11.651  17.397  0.00  0.00    -0.031 A 
ATOM     12  C   UNL d   1      34.059  12.195  16.908  0.00  0.00     0.046 A 
ATOM     13  C   UNL d   1      36.052   8.720  14.959  0.00  0.00     0.080 A 
ATOM     14  C   UNL d   1      34.580   7.637  15.929  0.00  0.00     0.017 A 
ATOM     15  C   UNL d   1      36.020   7.684  14.850  0.00  0.00     0.037 A 
ATOM     16  C   UNL d   1      35.279   7.140  15.339  0.00  0.00     0.004 A 
ENDROOT
BRANCH  11  17
ATOM     17  C   UNL d   1      32.643  12.118  17.967  0.00  0.00     0.203 C 
BRANCH  17  18
ATOM     18  O   UNL d   1      32.429  13.081  17.800  0.00  0.00    -0.396 OA
ATOM     19  H   UNL d   1      32.851  13.451  17.535  0.00  0.00     0.209 HD
ENDBRANCH  17  18
ENDBRANCH  11  17
BRANCH  10  20
ATOM     20  O   UNL d   1      35.474  12.211  15.844  0.00  0.00    -0.360 OA
ATOM     21  H   UNL d   1      35.996  12.363  16.143  0.00  0.00     0.217 HD
ENDBRANCH  10  20
BRANCH  13  22
ATOM     22  O   UNL d   1      36.760   9.253  14.494  0.00  0.00    -0.360 OA
ATOM     23  H   UNL d   1      36.709   9.372  13.887  0.00  0.00     0.217 HD
ENDBRANCH  13  22
TORSDOF 4
ENDMDL
MODEL 3
REMARK VINA RESULT:    -8.143      0.928      3.862
REMARK INTER + INTRA:          -9.315
REMARK INTER:                  -9.370
REMARK INTRA:                   0.055
REMARK UNBOUND:                 0.019
REMARK  4 active torsions:
REMARK  status: ('A' for Active; 'I' for Inactive)
REMARK    1  A    between atoms: O_1  and  C_13 
REMARK    2  A    between atoms: O_4  and  C_16 
REMARK    3  A    between atoms: O_5  and  C_18 
REMARK    4  A    between atoms: C_14  and  C_18 
ROOT
ATOM      1  O   UNL d   1      33.110   9.296  17.410  0.00  0.00    -0.286 OA
ATOM      2  O   UNL d   1      35.623  11.732  15.475  0.00  0.00    -0.287 OA
ATOM      3  C   UNL d   1      35.077  10.132  15.850  0.00  0.00     0.032 A 
ATOM      4  C   UNL d   1      34.448   9.523  16.334  0.00  0.00     0.062 A 
ATOM      5  C   UNL d   1      33.657  10.896  17.034  0.00  0.00     0.062 A 
ATOM      6  C   UNL d   1      34.285  11.505  16.550  0.00  0.00     0.032 A 
ATOM      7  C   UNL d   1      33.738   9.905  16.926  0.00  0.00     0.199 A 
ATOM      8  C   UNL d   1      34.995  11.123  15.958  0.00  0.00     0.194 A 
ATOM      9  C   UNL d   1      35.821   9.750  15.230  0.00  0.00     0.026 A 
ATOM     10  C   UNL d   1      34.521   8.490  16.231  0.00  0.00     0.081 A 
ATOM     11  C   UNL d   1      35.912   8.719  15.112  0.00  0.00    -0.031 A 
ATOM     12  C   UNL d   1      35.258   8.085  15.616  0.00  0.00     0.046 A 
ATOM     13  C   UNL d   1      32.913  11.279  17.654  0.00  0.00     0.080 A 
ATOM     14  C   UNL d   1      34.213  12.539  16.653  0.00  0.00     0.017 A 
ATOM     15  C   UNL d   1      32.822  12.310  17.772  0.00  0.00     0.037 A 
ATOM     16  C   UNL d   1      33.476  12.944  17.268  0.00  0.00     0.004 A 
ENDROOT
BRANCH  11  17
ATOM     17  C   UNL d   1      36.623   8.341  14.519  0.00  0.00     0.203 C 
BRANCH  17  18
ATOM     18  O   UNL d   1      37.257   8.954  14.046  0.00  0.00    -0.396 OA
ATOM     19  H   UNL d   1      37.864   8.832  14.045  0.00  0.00     0.209 HD
ENDBRANCH  17  18
ENDBRANCH  11  17
BRANCH  10  20
ATOM     20  O   UNL d   1      33.887   7.890  16.719  0.00  0.00    -0.360 OA
ATOM     21  H   UNL d   1      34.094   7.364  16.975  0.00  0.00     0.217 HD
ENDBRANCH  10  20
BRANCH  13  22
ATOM     22  O   UNL d   1      32.290  10.660  18.133  0.00  0.00    -0.360 OA
ATOM     23  H   UNL d   1      32.449  10.428  18.686  0.00  0.00     0.217 HD
ENDBRANCH  13  22
TORSDOF 4
ENDMDL
MODEL 4
REMARK VINA RESULT:    -7.896     31.049     32.931
REMARK INTER + INTRA:          -9.031
REMARK INTER:                  -9.050
REMARK INTRA:                   0.019
REMARK UNBOUND:                 0.019
REMARK  4 active torsions:
REMARK  status: ('A' for Active; 'I' for Inactive)
REMARK    1  A    between atoms: O_1  and  C_13 
REMARK    2  A    between atoms: O_4  and  C_16 
REMARK    3  A    between atoms: O_5  and  C_18 
REMARK    4  A    between atoms: C_14  and  C_18 
ROOT
ATOM      1  O   UNL d   1      41.323   6.988 -16.288  0.00  0.00    -0.286 OA
ATOM      2  O   UNL d   1      38.520   4.135 -16.359  0.00  0.00    -0.287 OA
ATOM      3  C   UNL d   1      39.206   5.546 -15.625  0.00  0.00     0.032 A 
ATOM      4  C   UNL d   1      39.907   6.259 -15.607  0.00  0.00     0.062 A 
ATOM      5  C   UNL d   1      40.637   5.577 -17.022  0.00  0.00     0.062 A 
ATOM      6  C   UNL d   1      39.937   4.863 -17.039  0.00  0.00     0.032 A 
ATOM      7  C   UNL d   1      40.623   6.274 -16.306  0.00  0.00     0.199 A 
ATOM      8  C   UNL d   1      39.221   4.848 -16.341  0.00  0.00     0.194 A 
ATOM      9  C   UNL d   1      38.455   5.516 -14.904  0.00  0.00     0.026 A 
ATOM     10  C   UNL d   1      39.905   6.992 -14.867  0.00  0.00     0.081 A 
ATOM     11  C   UNL d   1      38.433   6.240 -14.155  0.00  0.00    -0.031 A 
ATOM     12  C   UNL d   1      39.162   6.982 -14.136  0.00  0.00     0.046 A 
ATOM     13  C   UNL d   1      41.388   5.605 -17.743  0.00  0.00     0.080 A 
ATOM     14  C   UNL d   1      39.939   4.130 -17.779  0.00  0.00     0.017 A 
ATOM     15  C   UNL d   1      41.410   4.882 -18.492  0.00  0.00     0.037 A 
ATOM     16  C   UNL d   1      40.681   4.140 -18.510  0.00  0.00     0.004 A 
ENDROOT
BRANCH  11  17
ATOM     17  C   UNL d   1      37.716   6.220 -13.458  0.00  0.00     0.203 C 
BRANCH  17  18
ATOM     18  O   UNL d   1      37.086   6.992 -13.368  0.00  0.00    -0.396 OA
ATOM     19  H   UNL d   1      36.513   6.954 -13.604  0.00  0.00     0.209 HD
ENDBRANCH  17  18
ENDBRANCH  11  17
BRANCH  10  20
ATOM     20  O   UNL d   1      40.610   7.700 -14.859  0.00  0.00    -0.360 OA
ATOM     21  H   UNL d   1      40.973   7.782 -15.356  0.00  0.00     0.217 HD
ENDBRANCH  10  20
BRANCH  13  22
ATOM     22  O   UNL d   1      42.084   6.323 -17.715  0.00  0.00    -0.360 OA
ATOM     23  H   UNL d   1      42.685   6.173 -17.750  0.00  0.00     0.217 HD
ENDBRANCH  13  22
TORSDOF 4
ENDMDL
MODEL 5
REMARK VINA RESULT:    -7.878     30.598     32.584
REMARK INTER + INTRA:          -9.010
REMARK INTER:                  -9.037
REMARK INTRA:                   0.026
REMARK UNBOUND:                 0.019
REMARK  4 active torsions:
REMARK  status: ('A' for Active; 'I' for Inactive)
REMARK    1  A    between atoms: O_1  and  C_13 
REMARK    2  A    between atoms: O_4  and  C_16 
REMARK    3  A    between atoms: O_5  and  C_18 
REMARK    4  A    between atoms: C_14  and  C_18 
ROOT
ATOM      1  O   UNL d   1      39.454   6.841 -14.083  0.00  0.00    -0.286 OA
ATOM      2  O   UNL d   1      39.343   3.941 -16.836  0.00  0.00    -0.287 OA
ATOM      3  C   UNL d   1      40.034   5.410 -16.231  0.00  0.00     0.032 A 
ATOM      4  C   UNL d   1      40.061   6.135 -15.543  0.00  0.00     0.062 A 
ATOM      5  C   UNL d   1      38.763   5.372 -14.687  0.00  0.00     0.062 A 
ATOM      6  C   UNL d   1      38.735   4.647 -15.375  0.00  0.00     0.032 A 
ATOM      7  C   UNL d   1      39.426   6.116 -14.771  0.00  0.00     0.199 A 
ATOM      8  C   UNL d   1      39.371   4.666 -16.147  0.00  0.00     0.194 A 
ATOM      9  C   UNL d   1      40.689   5.416 -17.041  0.00  0.00     0.026 A 
ATOM     10  C   UNL d   1      40.746   6.916 -15.617  0.00  0.00     0.081 A 
ATOM     11  C   UNL d   1      41.382   6.188 -17.135  0.00  0.00    -0.031 A 
ATOM     12  C   UNL d   1      41.411   6.943 -16.419  0.00  0.00     0.046 A 
ATOM     13  C   UNL d   1      38.108   5.366 -13.878  0.00  0.00     0.080 A 
ATOM     14  C   UNL d   1      38.051   3.866 -15.302  0.00  0.00     0.017 A 
ATOM     15  C   UNL d   1      37.415   4.594 -13.784  0.00  0.00     0.037 A 
ATOM     16  C   UNL d   1      37.386   3.839 -14.500  0.00  0.00     0.004 A 
ENDROOT
BRANCH  11  17
ATOM     17  C   UNL d   1      42.016   6.203 -17.909  0.00  0.00     0.203 C 
BRANCH  17  18
ATOM     18  O   UNL d   1      43.003   6.210 -17.746  0.00  0.00    -0.396 OA
ATOM     19  H   UNL d   1      43.238   5.914 -17.255  0.00  0.00     0.209 HD
ENDBRANCH  17  18
ENDBRANCH  11  17
BRANCH  10  20
ATOM     20  O   UNL d   1      40.765   7.636 -14.923  0.00  0.00    -0.360 OA
ATOM     21  H   UNL d   1      40.489   8.181 -15.035  0.00  0.00     0.217 HD
ENDBRANCH  10  20
BRANCH  13  22
ATOM     22  O   UNL d   1      38.144   6.096 -13.196  0.00  0.00    -0.360 OA
ATOM     23  H   UNL d   1      38.609   6.113 -12.785  0.00  0.00     0.217 HD
ENDBRANCH  13  22
TORSDOF 4
ENDMDL
