MODEL 1
REMARK VINA RESULT:    -5.269      0.000      0.000
REMARK INTER + INTRA:          -4.524
REMARK INTER:                  -6.329
REMARK INTRA:                   1.805
REMARK UNBOUND:                 1.823
REMARK  4 active torsions:
REMARK  status: ('A' for Active; 'I' for Inactive)
REMARK    1  A    between atoms: O_1  and  C_8 
REMARK    2  A    between atoms: O_2  and  C_7 
REMARK    3  A    between atoms: C_3  and  C_4 
REMARK    4  A    between atoms: C_4  and  C_10 
ROOT
ATOM      1  C   UNL d   1       6.604  24.202  24.718  0.00  0.00    -0.052 A 
ATOM      2  C   UNL d   1       5.967  23.498  24.402  0.00  0.00     0.046 A 
ATOM      3  C   UNL d   1       7.581  23.999  24.784  0.00  0.00     0.010 A 
ATOM      4  C   UNL d   1       6.307  22.592  24.152  0.00  0.00     0.099 A 
ATOM      5  C   UNL d   1       7.284  22.389  24.218  0.00  0.00     0.101 A 
ATOM      6  C   UNL d   1       7.921  23.093  24.534  0.00  0.00     0.040 A 
ENDROOT
BRANCH   1   7
ATOM      7  C   UNL d   1       6.263  25.108  24.969  0.00  0.00     0.065 C 
BRANCH   7   8
ATOM      8  C   UNL d   1       6.499  25.503  25.857  0.00  0.00    -0.032 C 
ATOM      9  C   UNL d   1       6.242  26.446  26.068  0.00  0.00     0.007 C 
ENDBRANCH   7   8
ENDBRANCH   1   7
BRANCH   4  10
ATOM     10  O   UNL d   1       5.671  21.889  23.836  0.00  0.00    -0.358 OA
ATOM     11  H   UNL d   1       5.876  21.419  23.487  0.00  0.00     0.217 HD
ENDBRANCH   4  10
BRANCH   5  12
ATOM     12  O   UNL d   1       7.625  21.483  23.968  0.00  0.00    -0.353 OA
ATOM     13  C   UNL d   1       8.525  21.183  24.282  0.00  0.00     0.210 C 
ENDBRANCH   5  12
TORSDOF 4
ENDMDL
MODEL 2
REMARK VINA RESULT:    -4.986     22.420     23.477
REMARK INTER + INTRA:          -4.184
REMARK INTER:                  -5.891
REMARK INTRA:                   1.707
REMARK UNBOUND:                 1.823
REMARK  4 active torsions:
REMARK  status: ('A' for Active; 'I' for Inactive)
REMARK    1  A    between atoms: O_1  and  C_8 
REMARK    2  A    between atoms: O_2  and  C_7 
REMARK    3  A    between atoms: C_3  and  C_4 
REMARK    4  A    between atoms: C_4  and  C_10 
ROOT
ATOM      1  C   UNL d   1      -6.188  12.459   9.079  0.00  0.00    -0.052 A 
ATOM      2  C   UNL d   1      -5.720  13.340   9.148  0.00  0.00     0.046 A 
ATOM      3  C   UNL d   1      -6.810  12.281   8.316  0.00  0.00     0.010 A 
ATOM      4  C   UNL d   1      -5.875  14.044   8.455  0.00  0.00     0.099 A 
ATOM      5  C   UNL d   1      -6.497  13.867   7.692  0.00  0.00     0.101 A 
ATOM      6  C   UNL d   1      -6.965  12.985   7.623  0.00  0.00     0.040 A 
ENDROOT
BRANCH   1   7
ATOM      7  C   UNL d   1      -6.034  11.755   9.772  0.00  0.00     0.065 C 
BRANCH   7   8
ATOM      8  C   UNL d   1      -5.217  11.179   9.726  0.00  0.00    -0.032 C 
ATOM      9  C   UNL d   1      -5.145  10.367  10.306  0.00  0.00     0.007 C 
ENDBRANCH   7   8
ENDBRANCH   1   7
BRANCH   4  10
ATOM     10  O   UNL d   1      -5.407  14.925   8.524  0.00  0.00    -0.358 OA
ATOM     11  H   UNL d   1      -5.187  15.200   8.014  0.00  0.00     0.217 HD
ENDBRANCH   4  10
BRANCH   5  12
ATOM     12  O   UNL d   1      -6.652  14.571   6.999  0.00  0.00    -0.353 OA
ATOM     13  C   UNL d   1      -7.288  14.400   6.247  0.00  0.00     0.210 C 
ENDBRANCH   5  12
TORSDOF 4
ENDMDL
MODEL 3
REMARK VINA RESULT:    -4.947      1.208      3.724
REMARK INTER + INTRA:          -4.136
REMARK INTER:                  -5.842
REMARK INTRA:                   1.706
REMARK UNBOUND:                 1.823
REMARK  4 active torsions:
REMARK  status: ('A' for Active; 'I' for Inactive)
REMARK    1  A    between atoms: O_1  and  C_8 
REMARK    2  A    between atoms: O_2  and  C_7 
REMARK    3  A    between atoms: C_3  and  C_4 
REMARK    4  A    between atoms: C_4  and  C_10 
ROOT
ATOM      1  C   UNL d   1       8.418  21.936  24.172  0.00  0.00    -0.052 A 
ATOM      2  C   UNL d   1       7.488  21.587  24.058  0.00  0.00     0.046 A 
ATOM      3  C   UNL d   1       8.581  22.922  24.214  0.00  0.00     0.010 A 
ATOM      4  C   UNL d   1       6.721  22.224  23.985  0.00  0.00     0.099 A 
ATOM      5  C   UNL d   1       6.883  23.210  24.027  0.00  0.00     0.101 A 
ATOM      6  C   UNL d   1       7.813  23.559  24.142  0.00  0.00     0.040 A 
ENDROOT
BRANCH   1   7
ATOM      7  C   UNL d   1       9.186  21.300  24.245  0.00  0.00     0.065 C 
BRANCH   7   8
ATOM      8  C   UNL d   1       9.677  21.013  23.422  0.00  0.00    -0.032 C 
ATOM      9  C   UNL d   1      10.375  20.299  23.480  0.00  0.00     0.007 C 
ENDBRANCH   7   8
ENDBRANCH   1   7
BRANCH   4  10
ATOM     10  O   UNL d   1       5.790  21.875  23.871  0.00  0.00    -0.358 OA
ATOM     11  H   UNL d   1       5.515  21.568  24.334  0.00  0.00     0.217 HD
ENDBRANCH   4  10
BRANCH   5  12
ATOM     12  O   UNL d   1       6.115  23.846  23.955  0.00  0.00    -0.353 OA
ATOM     13  C   UNL d   1       6.230  24.801  24.228  0.00  0.00     0.210 C 
ENDBRANCH   5  12
TORSDOF 4
ENDMDL
MODEL 4
REMARK VINA RESULT:    -4.929      1.544      3.526
REMARK INTER + INTRA:          -4.115
REMARK INTER:                  -5.901
REMARK INTRA:                   1.786
REMARK UNBOUND:                 1.823
REMARK  4 active torsions:
REMARK  status: ('A' for Active; 'I' for Inactive)
REMARK    1  A    between atoms: O_1  and  C_8 
REMARK    2  A    between atoms: O_2  and  C_7 
REMARK    3  A    between atoms: C_3  and  C_4 
REMARK    4  A    between atoms: C_4  and  C_10 
ROOT
ATOM      1  C   UNL d   1       7.030  22.982  24.356  0.00  0.00    -0.052 A 
ATOM      2  C   UNL d   1       6.270  23.327  23.805  0.00  0.00     0.046 A 
ATOM      3  C   UNL d   1       7.448  23.565  25.052  0.00  0.00     0.010 A 
ATOM      4  C   UNL d   1       5.928  24.255  23.951  0.00  0.00     0.099 A 
ATOM      5  C   UNL d   1       6.346  24.838  24.648  0.00  0.00     0.101 A 
ATOM      6  C   UNL d   1       7.106  24.493  25.198  0.00  0.00     0.040 A 
ENDROOT
BRANCH   1   7
ATOM      7  C   UNL d   1       7.372  22.053  24.210  0.00  0.00     0.065 C 
BRANCH   7   8
ATOM      8  C   UNL d   1       8.286  21.911  23.829  0.00  0.00    -0.032 C 
ATOM      9  C   UNL d   1       8.727  21.017  23.907  0.00  0.00     0.007 C 
ENDBRANCH   7   8
ENDBRANCH   1   7
BRANCH   4  10
ATOM     10  O   UNL d   1       5.167  24.600  23.401  0.00  0.00    -0.358 OA
ATOM     11  H   UNL d   1       4.603  24.657  23.653  0.00  0.00     0.217 HD
ENDBRANCH   4  10
BRANCH   5  12
ATOM     12  O   UNL d   1       6.004  25.766  24.794  0.00  0.00    -0.353 OA
ATOM     13  C   UNL d   1       6.516  26.403  25.370  0.00  0.00     0.210 C 
ENDBRANCH   5  12
TORSDOF 4
ENDMDL
MODEL 5
REMARK VINA RESULT:    -4.891      2.223      2.950
REMARK INTER + INTRA:          -4.068
REMARK INTER:                  -5.790
REMARK INTRA:                   1.722
REMARK UNBOUND:                 1.823
REMARK  4 active torsions:
REMARK  status: ('A' for Active; 'I' for Inactive)
REMARK    1  A    between atoms: O_1  and  C_8 
REMARK    2  A    between atoms: O_2  and  C_7 
REMARK    3  A    between atoms: C_3  and  C_4 
REMARK    4  A    between atoms: C_4  and  C_10 
ROOT
ATOM      1  C   UNL d   1       7.848  22.454  24.030  0.00  0.00    -0.052 A 
ATOM      2  C   UNL d   1       8.416  22.836  23.301  0.00  0.00     0.046 A 
ATOM      3  C   UNL d   1       8.072  21.563  24.423  0.00  0.00     0.010 A 
ATOM      4  C   UNL d   1       9.208  22.326  22.965  0.00  0.00     0.099 A 
ATOM      5  C   UNL d   1       9.432  21.434  23.358  0.00  0.00     0.101 A 
ATOM      6  C   UNL d   1       8.864  21.053  24.087  0.00  0.00     0.040 A 
ENDROOT
BRANCH   1   7
ATOM      7  C   UNL d   1       7.056  22.964  24.366  0.00  0.00     0.065 C 
BRANCH   7   8
ATOM      8  C   UNL d   1       6.151  22.796  23.976  0.00  0.00    -0.032 C 
ATOM      9  C   UNL d   1       5.382  23.386  24.223  0.00  0.00     0.007 C 
ENDBRANCH   7   8
ENDBRANCH   1   7
BRANCH   4  10
ATOM     10  O   UNL d   1       9.776  22.707  22.236  0.00  0.00    -0.358 OA
ATOM     11  H   UNL d   1       9.664  23.279  22.023  0.00  0.00     0.217 HD
ENDBRANCH   4  10
BRANCH   5  12
ATOM     12  O   UNL d   1      10.223  20.924  23.022  0.00  0.00    -0.353 OA
ATOM     13  C   UNL d   1      10.657  20.235  23.603  0.00  0.00     0.210 C 
ENDBRANCH   5  12
TORSDOF 4
ENDMDL
