MODEL 1
REMARK VINA RESULT:    -8.687      0.000      0.000
REMARK INTER + INTRA:          -8.684
REMARK INTER:                  -9.699
REMARK INTRA:                   1.015
REMARK UNBOUND:                 1.018
REMARK  3 active torsions:
REMARK  status: ('A' for Active; 'I' for Inactive)
REMARK    1  A    between atoms: O_2  and  C_10 
REMARK    2  A    between atoms: O_4  and  C_13 
REMARK    3  A    between atoms: C_7  and  C_9 
ROOT
ATOM      1  O   UNL d   1     -10.408  -2.611  41.621  0.00  0.00    -0.309 OA
ATOM      2  O   UNL d   1      -9.949  -5.292  40.355  0.00  0.00    -0.287 OA
ATOM      3  C   UNL d   1      -9.701  -4.191  41.669  0.00  0.00     0.081 A 
ATOM      4  C   UNL d   1      -9.854  -3.297  42.091  0.00  0.00     0.095 A 
ATOM      5  C   UNL d   1     -10.810  -2.818  40.729  0.00  0.00     0.090 A 
ATOM      6  C   UNL d   1     -10.102  -4.398  40.777  0.00  0.00     0.190 A 
ATOM      7  C   UNL d   1      -9.125  -4.915  42.147  0.00  0.00     0.085 A 
ATOM      8  C   UNL d   1     -10.657  -3.712  40.307  0.00  0.00     0.094 A 
ATOM      9  C   UNL d   1      -9.442  -3.066  43.020  0.00  0.00     0.075 A 
ATOM     10  C   UNL d   1      -8.863  -3.776  43.516  0.00  0.00     0.071 A 
ATOM     11  C   UNL d   1      -8.704  -4.707  43.077  0.00  0.00     0.074 A 
ENDROOT
BRANCH   5  12
ATOM     12  C   UNL d   1     -11.365  -2.132  40.259  0.00  0.00    -0.002 A 
ATOM     13  C   UNL d   1     -12.311  -1.975  40.540  0.00  0.00     0.014 A 
ATOM     14  C   UNL d   1     -12.866  -1.289  40.070  0.00  0.00     0.001 A 
ATOM     15  C   UNL d   1     -12.474  -0.759  39.318  0.00  0.00     0.000 A 
ATOM     16  C   UNL d   1     -11.527  -0.915  39.037  0.00  0.00     0.001 A 
ATOM     17  C   UNL d   1     -10.972  -1.601  39.507  0.00  0.00     0.014 A 
ENDBRANCH   5  12
BRANCH   7  18
ATOM     18  O   UNL d   1      -8.979  -5.806  41.716  0.00  0.00    -0.360 OA
ATOM     19  H   UNL d   1      -9.007  -6.323  42.056  0.00  0.00     0.217 HD
ENDBRANCH   7  18
BRANCH  10  20
ATOM     20  O   UNL d   1      -8.463  -3.565  44.408  0.00  0.00    -0.361 OA
ATOM     21  H   UNL d   1      -8.376  -4.017  44.823  0.00  0.00     0.217 HD
ENDBRANCH  10  20
TORSDOF 3
ENDMDL
MODEL 2
REMARK VINA RESULT:    -8.435     52.753     53.753
REMARK INTER + INTRA:          -8.403
REMARK INTER:                  -9.517
REMARK INTRA:                   1.114
REMARK UNBOUND:                 1.018
REMARK  3 active torsions:
REMARK  status: ('A' for Active; 'I' for Inactive)
REMARK    1  A    between atoms: O_2  and  C_10 
REMARK    2  A    between atoms: O_4  and  C_13 
REMARK    3  A    between atoms: C_7  and  C_9 
ROOT
ATOM      1  O   UNL d   1     -30.205  35.774   9.530  0.00  0.00    -0.309 OA
ATOM      2  O   UNL d   1     -29.665  36.110  12.462  0.00  0.00    -0.287 OA
ATOM      3  C   UNL d   1     -29.479  36.659  10.830  0.00  0.00     0.081 A 
ATOM      4  C   UNL d   1     -29.659  36.547   9.852  0.00  0.00     0.095 A 
ATOM      5  C   UNL d   1     -30.571  35.113  10.185  0.00  0.00     0.090 A 
ATOM      6  C   UNL d   1     -29.845  35.998  11.484  0.00  0.00     0.190 A 
ATOM      7  C   UNL d   1     -28.913  37.459  11.180  0.00  0.00     0.085 A 
ATOM      8  C   UNL d   1     -30.391  35.225  11.162  0.00  0.00     0.094 A 
ATOM      9  C   UNL d   1     -29.285  37.228   9.158  0.00  0.00     0.075 A 
ATOM     10  C   UNL d   1     -28.715  38.035   9.487  0.00  0.00     0.071 A 
ATOM     11  C   UNL d   1     -28.528  38.152  10.504  0.00  0.00     0.074 A 
ENDROOT
BRANCH   5  12
ATOM     12  C   UNL d   1     -31.117  34.339   9.862  0.00  0.00    -0.002 A 
ATOM     13  C   UNL d   1     -30.731  33.695   9.202  0.00  0.00     0.014 A 
ATOM     14  C   UNL d   1     -31.277  32.922   8.879  0.00  0.00     0.001 A 
ATOM     15  C   UNL d   1     -32.209  32.793   9.217  0.00  0.00     0.000 A 
ATOM     16  C   UNL d   1     -32.595  33.437   9.878  0.00  0.00     0.001 A 
ATOM     17  C   UNL d   1     -32.049  34.210  10.200  0.00  0.00     0.014 A 
ENDBRANCH   5  12
BRANCH   7  18
ATOM     18  O   UNL d   1     -28.739  37.561  12.160  0.00  0.00    -0.360 OA
ATOM     19  H   UNL d   1     -28.949  37.135  12.557  0.00  0.00     0.217 HD
ENDBRANCH   7  18
BRANCH  10  20
ATOM     20  O   UNL d   1     -28.351  38.695   8.828  0.00  0.00    -0.361 OA
ATOM     21  H   UNL d   1     -28.736  39.076   8.527  0.00  0.00     0.217 HD
ENDBRANCH  10  20
TORSDOF 3
ENDMDL
MODEL 3
REMARK VINA RESULT:    -8.316     17.964     19.527
REMARK INTER + INTRA:          -8.270
REMARK INTER:                  -9.572
REMARK INTRA:                   1.302
REMARK UNBOUND:                 1.018
REMARK  3 active torsions:
REMARK  status: ('A' for Active; 'I' for Inactive)
REMARK    1  A    between atoms: O_2  and  C_10 
REMARK    2  A    between atoms: O_4  and  C_13 
REMARK    3  A    between atoms: C_7  and  C_9 
ROOT
ATOM      1  O   UNL d   1      -0.887  11.333  32.856  0.00  0.00    -0.309 OA
ATOM      2  O   UNL d   1       0.505  11.839  35.465  0.00  0.00    -0.287 OA
ATOM      3  C   UNL d   1      -0.557  10.875  34.494  0.00  0.00     0.081 A 
ATOM      4  C   UNL d   1      -1.021  10.707  33.624  0.00  0.00     0.095 A 
ATOM      5  C   UNL d   1      -0.289  12.128  32.958  0.00  0.00     0.090 A 
ATOM      6  C   UNL d   1       0.041  11.670  34.596  0.00  0.00     0.190 A 
ATOM      7  C   UNL d   1      -0.688  10.232  35.302  0.00  0.00     0.085 A 
ATOM      8  C   UNL d   1       0.175  12.296  33.828  0.00  0.00     0.094 A 
ATOM      9  C   UNL d   1      -1.647   9.883  33.503  0.00  0.00     0.075 A 
ATOM     10  C   UNL d   1      -1.792   9.226  34.298  0.00  0.00     0.071 A 
ATOM     11  C   UNL d   1      -1.309   9.402  35.204  0.00  0.00     0.074 A 
ENDROOT
BRANCH   5  12
ATOM     12  C   UNL d   1      -0.154  12.754  32.190  0.00  0.00    -0.002 A 
ATOM     13  C   UNL d   1      -0.165  12.405  31.253  0.00  0.00     0.014 A 
ATOM     14  C   UNL d   1      -0.031  13.032  30.485  0.00  0.00     0.001 A 
ATOM     15  C   UNL d   1       0.115  14.006  30.654  0.00  0.00     0.000 A 
ATOM     16  C   UNL d   1       0.125  14.355  31.591  0.00  0.00     0.001 A 
ATOM     17  C   UNL d   1      -0.009  13.729  32.359  0.00  0.00     0.014 A 
ENDBRANCH   5  12
BRANCH   7  18
ATOM     18  O   UNL d   1      -0.219  10.410  36.167  0.00  0.00    -0.360 OA
ATOM     19  H   UNL d   1       0.384  10.553  36.169  0.00  0.00     0.217 HD
ENDBRANCH   7  18
BRANCH  10  20
ATOM     20  O   UNL d   1      -2.391   8.433  34.192  0.00  0.00    -0.361 OA
ATOM     21  H   UNL d   1      -2.147   7.865  34.145  0.00  0.00     0.217 HD
ENDBRANCH  10  20
TORSDOF 3
ENDMDL
MODEL 4
REMARK VINA RESULT:    -8.221     36.703     39.277
REMARK INTER + INTRA:          -8.164
REMARK INTER:                  -9.200
REMARK INTRA:                   1.036
REMARK UNBOUND:                 1.018
REMARK  3 active torsions:
REMARK  status: ('A' for Active; 'I' for Inactive)
REMARK    1  A    between atoms: O_2  and  C_10 
REMARK    2  A    between atoms: O_4  and  C_13 
REMARK    3  A    between atoms: C_7  and  C_9 
ROOT
ATOM      1  O   UNL d   1     -16.380  15.198   7.533  0.00  0.00    -0.309 OA
ATOM      2  O   UNL d   1     -14.331  14.181   5.592  0.00  0.00    -0.287 OA
ATOM      3  C   UNL d   1     -15.953  14.681   5.936  0.00  0.00     0.081 A 
ATOM      4  C   UNL d   1     -16.636  15.019   6.583  0.00  0.00     0.095 A 
ATOM      5  C   UNL d   1     -15.440  15.037   7.836  0.00  0.00     0.090 A 
ATOM      6  C   UNL d   1     -15.014  14.520   6.239  0.00  0.00     0.190 A 
ATOM      7  C   UNL d   1     -16.205  14.490   4.944  0.00  0.00     0.085 A 
ATOM      8  C   UNL d   1     -14.757  14.698   7.189  0.00  0.00     0.094 A 
ATOM      9  C   UNL d   1     -17.619  15.192   6.283  0.00  0.00     0.075 A 
ATOM     10  C   UNL d   1     -17.893  15.008   5.295  0.00  0.00     0.071 A 
ATOM     11  C   UNL d   1     -17.182  14.655   4.621  0.00  0.00     0.074 A 
ENDROOT
BRANCH   5  12
ATOM     12  C   UNL d   1     -15.184  15.216   8.786  0.00  0.00    -0.002 A 
ATOM     13  C   UNL d   1     -15.106  16.157   9.115  0.00  0.00     0.014 A 
ATOM     14  C   UNL d   1     -14.850  16.335  10.065  0.00  0.00     0.001 A 
ATOM     15  C   UNL d   1     -14.671  15.572  10.686  0.00  0.00     0.000 A 
ATOM     16  C   UNL d   1     -14.749  14.631  10.357  0.00  0.00     0.001 A 
ATOM     17  C   UNL d   1     -15.005  14.453   9.407  0.00  0.00     0.014 A 
ENDBRANCH   5  12
BRANCH   7  18
ATOM     18  O   UNL d   1     -15.514  14.152   4.306  0.00  0.00    -0.360 OA
ATOM     19  H   UNL d   1     -14.990  14.471   4.219  0.00  0.00     0.217 HD
ENDBRANCH   7  18
BRANCH  10  20
ATOM     20  O   UNL d   1     -18.834  15.170   4.996  0.00  0.00    -0.361 OA
ATOM     21  H   UNL d   1     -18.953  15.285   4.398  0.00  0.00     0.217 HD
ENDBRANCH  10  20
TORSDOF 3
ENDMDL
MODEL 5
REMARK VINA RESULT:    -8.212      0.876      2.168
REMARK INTER + INTRA:          -8.154
REMARK INTER:                  -9.189
REMARK INTRA:                   1.036
REMARK UNBOUND:                 1.018
REMARK  3 active torsions:
REMARK  status: ('A' for Active; 'I' for Inactive)
REMARK    1  A    between atoms: O_2  and  C_10 
REMARK    2  A    between atoms: O_4  and  C_13 
REMARK    3  A    between atoms: C_7  and  C_9 
ROOT
ATOM      1  O   UNL d   1     -10.253  -3.605  40.512  0.00  0.00    -0.309 OA
ATOM      2  O   UNL d   1      -9.404  -2.779  43.268  0.00  0.00    -0.287 OA
ATOM      3  C   UNL d   1      -9.346  -3.908  41.956  0.00  0.00     0.081 A 
ATOM      4  C   UNL d   1      -9.629  -4.183  41.037  0.00  0.00     0.095 A 
ATOM      5  C   UNL d   1     -10.594  -2.751  40.905  0.00  0.00     0.090 A 
ATOM      6  C   UNL d   1      -9.687  -3.054  42.349  0.00  0.00     0.190 A 
ATOM      7  C   UNL d   1      -8.697  -4.500  42.515  0.00  0.00     0.085 A 
ATOM      8  C   UNL d   1     -10.311  -2.476  41.824  0.00  0.00     0.094 A 
ATOM      9  C   UNL d   1      -9.282  -5.070  40.614  0.00  0.00     0.075 A 
ATOM     10  C   UNL d   1      -8.632  -5.677  41.155  0.00  0.00     0.071 A 
ATOM     11  C   UNL d   1      -8.337  -5.391  42.112  0.00  0.00     0.074 A 
ENDROOT
BRANCH   5  12
ATOM     12  C   UNL d   1     -11.218  -2.173  40.380  0.00  0.00    -0.002 A 
ATOM     13  C   UNL d   1     -10.876  -1.645  39.602  0.00  0.00     0.014 A 
ATOM     14  C   UNL d   1     -11.500  -1.067  39.077  0.00  0.00     0.001 A 
ATOM     15  C   UNL d   1     -12.466  -1.016  39.329  0.00  0.00     0.000 A 
ATOM     16  C   UNL d   1     -12.809  -1.544  40.106  0.00  0.00     0.001 A 
ATOM     17  C   UNL d   1     -12.184  -2.122  40.632  0.00  0.00     0.014 A 
ENDBRANCH   5  12
BRANCH   7  18
ATOM     18  O   UNL d   1      -8.421  -4.215  43.433  0.00  0.00    -0.360 OA
ATOM     19  H   UNL d   1      -8.268  -3.624  43.540  0.00  0.00     0.217 HD
ENDBRANCH   7  18
BRANCH  10  20
ATOM     20  O   UNL d   1      -8.293  -6.531  40.758  0.00  0.00    -0.361 OA
ATOM     21  H   UNL d   1      -8.692  -6.944  40.525  0.00  0.00     0.217 HD
ENDBRANCH  10  20
TORSDOF 3
ENDMDL
