MODEL 1
REMARK VINA RESULT:    -8.491      0.000      0.000
REMARK INTER + INTRA:          -8.483
REMARK INTER:                  -9.588
REMARK INTRA:                   1.105
REMARK UNBOUND:                 1.000
REMARK  3 active torsions:
REMARK  status: ('A' for Active; 'I' for Inactive)
REMARK    1  A    between atoms: O_2  and  C_10 
REMARK    2  A    between atoms: O_4  and  C_13 
REMARK    3  A    between atoms: C_7  and  C_9 
ROOT
ATOM      1  O   UNL d   1     -21.328 -17.057  33.609  0.00  0.00    -0.309 OA
ATOM      2  O   UNL d   1     -23.922 -18.554  33.784  0.00  0.00    -0.287 OA
ATOM      3  C   UNL d   1     -22.235 -18.518  33.396  0.00  0.00     0.081 A 
ATOM      4  C   UNL d   1     -21.370 -18.019  33.338  0.00  0.00     0.095 A 
ATOM      5  C   UNL d   1     -22.151 -16.595  33.939  0.00  0.00     0.090 A 
ATOM      6  C   UNL d   1     -23.057 -18.055  33.726  0.00  0.00     0.190 A 
ATOM      7  C   UNL d   1     -22.293 -19.519  33.117  0.00  0.00     0.085 A 
ATOM      8  C   UNL d   1     -23.016 -17.094  33.997  0.00  0.00     0.094 A 
ATOM      9  C   UNL d   1     -20.504 -18.487  32.997  0.00  0.00     0.075 A 
ATOM     10  C   UNL d   1     -20.540 -19.489  32.712  0.00  0.00     0.071 A 
ATOM     11  C   UNL d   1     -21.440 -20.008  32.773  0.00  0.00     0.074 A 
ENDROOT
BRANCH   5  12
ATOM     12  C   UNL d   1     -22.109 -15.633  34.211  0.00  0.00    -0.002 A 
ATOM     13  C   UNL d   1     -22.349 -15.366  35.144  0.00  0.00     0.014 A 
ATOM     14  C   UNL d   1     -22.307 -14.405  35.415  0.00  0.00     0.001 A 
ATOM     15  C   UNL d   1     -22.026 -13.710  34.753  0.00  0.00     0.000 A 
ATOM     16  C   UNL d   1     -21.786 -13.977  33.820  0.00  0.00     0.001 A 
ATOM     17  C   UNL d   1     -21.828 -14.939  33.549  0.00  0.00     0.014 A 
ENDBRANCH   5  12
BRANCH   7  18
ATOM     18  O   UNL d   1     -23.163 -20.008  33.180  0.00  0.00    -0.360 OA
ATOM     19  H   UNL d   1     -23.522 -20.067  32.678  0.00  0.00     0.217 HD
ENDBRANCH   7  18
BRANCH  10  20
ATOM     20  O   UNL d   1     -19.714 -19.948  32.383  0.00  0.00    -0.361 OA
ATOM     21  H   UNL d   1     -19.450 -19.766  31.852  0.00  0.00     0.217 HD
ENDBRANCH  10  20
TORSDOF 3
ENDMDL
MODEL 2
REMARK VINA RESULT:    -8.258     11.044     11.773
REMARK INTER + INTRA:          -8.223
REMARK INTER:                  -9.376
REMARK INTRA:                   1.153
REMARK UNBOUND:                 1.000
REMARK  3 active torsions:
REMARK  status: ('A' for Active; 'I' for Inactive)
REMARK    1  A    between atoms: O_2  and  C_10 
REMARK    2  A    between atoms: O_4  and  C_13 
REMARK    3  A    between atoms: C_7  and  C_9 
ROOT
ATOM      1  O   UNL d   1     -19.328 -12.071  43.960  0.00  0.00    -0.309 OA
ATOM      2  O   UNL d   1     -17.008 -12.721  42.173  0.00  0.00    -0.287 OA
ATOM      3  C   UNL d   1     -18.210 -13.225  43.314  0.00  0.00     0.081 A 
ATOM      4  C   UNL d   1     -18.983 -13.008  43.909  0.00  0.00     0.095 A 
ATOM      5  C   UNL d   1     -18.900 -11.350  43.414  0.00  0.00     0.090 A 
ATOM      6  C   UNL d   1     -17.781 -12.504  42.768  0.00  0.00     0.190 A 
ATOM      7  C   UNL d   1     -17.840 -14.196  43.251  0.00  0.00     0.085 A 
ATOM      8  C   UNL d   1     -18.126 -11.567  42.818  0.00  0.00     0.094 A 
ATOM      9  C   UNL d   1     -19.440 -13.747  44.484  0.00  0.00     0.075 A 
ATOM     10  C   UNL d   1     -19.086 -14.726  44.437  0.00  0.00     0.071 A 
ATOM     11  C   UNL d   1     -18.281 -14.952  43.817  0.00  0.00     0.074 A 
ENDROOT
BRANCH   5  12
ATOM     12  C   UNL d   1     -19.245 -10.413  43.464  0.00  0.00    -0.002 A 
ATOM     13  C   UNL d   1     -18.615  -9.657  43.641  0.00  0.00     0.014 A 
ATOM     14  C   UNL d   1     -18.960  -8.720  43.691  0.00  0.00     0.001 A 
ATOM     15  C   UNL d   1     -19.935  -8.539  43.565  0.00  0.00     0.000 A 
ATOM     16  C   UNL d   1     -20.565  -9.295  43.388  0.00  0.00     0.001 A 
ATOM     17  C   UNL d   1     -20.220 -10.232  43.338  0.00  0.00     0.014 A 
ENDBRANCH   5  12
BRANCH   7  18
ATOM     18  O   UNL d   1     -17.066 -14.401  42.652  0.00  0.00    -0.360 OA
ATOM     19  H   UNL d   1     -17.101 -14.873  42.252  0.00  0.00     0.217 HD
ENDBRANCH   7  18
BRANCH  10  20
ATOM     20  O   UNL d   1     -19.517 -15.444  44.984  0.00  0.00    -0.361 OA
ATOM     21  H   UNL d   1     -19.166 -15.857  45.285  0.00  0.00     0.217 HD
ENDBRANCH  10  20
TORSDOF 3
ENDMDL
MODEL 3
REMARK VINA RESULT:    -8.032     11.457     13.405
REMARK INTER + INTRA:          -7.971
REMARK INTER:                  -9.007
REMARK INTRA:                   1.036
REMARK UNBOUND:                 1.000
REMARK  3 active torsions:
REMARK  status: ('A' for Active; 'I' for Inactive)
REMARK    1  A    between atoms: O_2  and  C_10 
REMARK    2  A    between atoms: O_4  and  C_13 
REMARK    3  A    between atoms: C_7  and  C_9 
ROOT
ATOM      1  O   UNL d   1     -17.465 -10.761  43.834  0.00  0.00    -0.309 OA
ATOM      2  O   UNL d   1     -19.638  -9.105  42.596  0.00  0.00    -0.287 OA
ATOM      3  C   UNL d   1     -18.109  -9.213  43.402  0.00  0.00     0.081 A 
ATOM      4  C   UNL d   1     -17.384  -9.765  43.815  0.00  0.00     0.095 A 
ATOM      5  C   UNL d   1     -18.269 -11.206  43.441  0.00  0.00     0.090 A 
ATOM      6  C   UNL d   1     -18.914  -9.657  43.009  0.00  0.00     0.190 A 
ATOM      7  C   UNL d   1     -18.039  -8.174  43.375  0.00  0.00     0.085 A 
ATOM      8  C   UNL d   1     -18.994 -10.654  43.028  0.00  0.00     0.094 A 
ATOM      9  C   UNL d   1     -16.540  -9.316  44.229  0.00  0.00     0.075 A 
ATOM     10  C   UNL d   1     -16.450  -8.278  44.212  0.00  0.00     0.071 A 
ATOM     11  C   UNL d   1     -17.204  -7.704  43.782  0.00  0.00     0.074 A 
ENDROOT
BRANCH   5  12
ATOM     12  C   UNL d   1     -18.350 -12.202  43.460  0.00  0.00    -0.002 A 
ATOM     13  C   UNL d   1     -17.771 -12.762  42.867  0.00  0.00     0.014 A 
ATOM     14  C   UNL d   1     -17.851 -13.759  42.887  0.00  0.00     0.001 A 
ATOM     15  C   UNL d   1     -18.510 -14.196  43.499  0.00  0.00     0.000 A 
ATOM     16  C   UNL d   1     -19.089 -13.636  44.092  0.00  0.00     0.001 A 
ATOM     17  C   UNL d   1     -19.008 -12.639  44.073  0.00  0.00     0.014 A 
ENDBRANCH   5  12
BRANCH   7  18
ATOM     18  O   UNL d   1     -18.770  -7.632  42.959  0.00  0.00    -0.360 OA
ATOM     19  H   UNL d   1     -19.359  -7.727  43.127  0.00  0.00     0.217 HD
ENDBRANCH   7  18
BRANCH  10  20
ATOM     20  O   UNL d   1     -15.643  -7.838  44.607  0.00  0.00    -0.361 OA
ATOM     21  H   UNL d   1     -15.090  -7.902  44.333  0.00  0.00     0.217 HD
ENDBRANCH  10  20
TORSDOF 3
ENDMDL
MODEL 4
REMARK VINA RESULT:    -8.031     19.532     21.520
REMARK INTER + INTRA:          -7.970
REMARK INTER:                  -9.066
REMARK INTRA:                   1.096
REMARK UNBOUND:                 1.000
REMARK  3 active torsions:
REMARK  status: ('A' for Active; 'I' for Inactive)
REMARK    1  A    between atoms: O_2  and  C_10 
REMARK    2  A    between atoms: O_4  and  C_13 
REMARK    3  A    between atoms: C_7  and  C_9 
ROOT
ATOM      1  O   UNL d   1     -31.068   2.060  36.364  0.00  0.00    -0.309 OA
ATOM      2  O   UNL d   1     -30.132   0.717  38.878  0.00  0.00    -0.287 OA
ATOM      3  C   UNL d   1     -29.849   1.192  37.237  0.00  0.00     0.081 A 
ATOM      4  C   UNL d   1     -30.161   1.639  36.399  0.00  0.00     0.095 A 
ATOM      5  C   UNL d   1     -31.663   2.033  37.167  0.00  0.00     0.090 A 
ATOM      6  C   UNL d   1     -30.444   1.165  38.040  0.00  0.00     0.190 A 
ATOM      7  C   UNL d   1     -28.908   0.750  37.287  0.00  0.00     0.085 A 
ATOM      8  C   UNL d   1     -31.351   1.585  38.006  0.00  0.00     0.094 A 
ATOM      9  C   UNL d   1     -29.553   1.676  35.553  0.00  0.00     0.075 A 
ATOM     10  C   UNL d   1     -28.607   1.240  35.582  0.00  0.00     0.071 A 
ATOM     11  C   UNL d   1     -28.283   0.774  36.454  0.00  0.00     0.074 A 
ENDROOT
BRANCH   5  12
ATOM     12  C   UNL d   1     -32.569   2.453  37.133  0.00  0.00    -0.002 A 
ATOM     13  C   UNL d   1     -32.660   3.430  36.943  0.00  0.00     0.014 A 
ATOM     14  C   UNL d   1     -33.567   3.851  36.908  0.00  0.00     0.001 A 
ATOM     15  C   UNL d   1     -34.383   3.294  37.063  0.00  0.00     0.000 A 
ATOM     16  C   UNL d   1     -34.292   2.316  37.253  0.00  0.00     0.001 A 
ATOM     17  C   UNL d   1     -33.385   1.896  37.288  0.00  0.00     0.014 A 
ENDBRANCH   5  12
BRANCH   7  18
ATOM     18  O   UNL d   1     -28.606   0.305  38.131  0.00  0.00    -0.360 OA
ATOM     19  H   UNL d   1     -28.001   0.240  38.247  0.00  0.00     0.217 HD
ENDBRANCH   7  18
BRANCH  10  20
ATOM     20  O   UNL d   1     -28.016   1.269  34.776  0.00  0.00    -0.361 OA
ATOM     21  H   UNL d   1     -27.781   0.744  34.545  0.00  0.00     0.217 HD
ENDBRANCH  10  20
TORSDOF 3
ENDMDL
MODEL 5
REMARK VINA RESULT:    -7.942     13.659     14.915
REMARK INTER + INTRA:          -7.871
REMARK INTER:                  -8.871
REMARK INTRA:                   1.000
REMARK UNBOUND:                 1.000
REMARK  3 active torsions:
REMARK  status: ('A' for Active; 'I' for Inactive)
REMARK    1  A    between atoms: O_2  and  C_10 
REMARK    2  A    between atoms: O_4  and  C_13 
REMARK    3  A    between atoms: C_7  and  C_9 
ROOT
ATOM      1  O   UNL d   1      -8.393 -16.767  38.010  0.00  0.00    -0.309 OA
ATOM      2  O   UNL d   1      -8.127 -13.991  39.117  0.00  0.00    -0.287 OA
ATOM      3  C   UNL d   1      -8.285 -15.698  39.368  0.00  0.00     0.081 A 
ATOM      4  C   UNL d   1      -8.374 -16.623  38.999  0.00  0.00     0.095 A 
ATOM      5  C   UNL d   1      -8.323 -15.986  37.389  0.00  0.00     0.090 A 
ATOM      6  C   UNL d   1      -8.216 -14.917  38.748  0.00  0.00     0.190 A 
ATOM      7  C   UNL d   1      -8.264 -15.533  40.396  0.00  0.00     0.085 A 
ATOM      8  C   UNL d   1      -8.235 -15.061  37.758  0.00  0.00     0.094 A 
ATOM      9  C   UNL d   1      -8.447 -17.447  39.632  0.00  0.00     0.075 A 
ATOM     10  C   UNL d   1      -8.428 -17.305  40.664  0.00  0.00     0.071 A 
ATOM     11  C   UNL d   1      -8.336 -16.341  41.048  0.00  0.00     0.074 A 
ENDROOT
BRANCH   5  12
ATOM     12  C   UNL d   1      -8.342 -16.130  36.400  0.00  0.00    -0.002 A 
ATOM     13  C   UNL d   1      -9.217 -16.160  35.916  0.00  0.00     0.014 A 
ATOM     14  C   UNL d   1      -9.236 -16.304  34.926  0.00  0.00     0.001 A 
ATOM     15  C   UNL d   1      -8.380 -16.418  34.421  0.00  0.00     0.000 A 
ATOM     16  C   UNL d   1      -7.506 -16.388  34.905  0.00  0.00     0.001 A 
ATOM     17  C   UNL d   1      -7.487 -16.244  35.895  0.00  0.00     0.014 A 
ENDBRANCH   5  12
BRANCH   7  18
ATOM     18  O   UNL d   1      -8.175 -14.603  40.754  0.00  0.00    -0.360 OA
ATOM     19  H   UNL d   1      -8.508 -14.143  40.506  0.00  0.00     0.217 HD
ENDBRANCH   7  18
BRANCH  10  20
ATOM     20  O   UNL d   1      -8.498 -18.089  41.281  0.00  0.00    -0.361 OA
ATOM     21  H   UNL d   1      -8.999 -18.453  41.263  0.00  0.00     0.217 HD
ENDBRANCH  10  20
TORSDOF 3
ENDMDL
