MODEL 1
REMARK VINA RESULT:    -9.943      0.000      0.000
REMARK INTER + INTRA:          -8.127
REMARK INTER:                 -11.109
REMARK INTRA:                   2.982
REMARK UNBOUND:                 2.978
REMARK  2 active torsions:
REMARK  status: ('A' for Active; 'I' for Inactive)
REMARK    1  A    between atoms: O_3  and  C_17 
REMARK    2  A    between atoms: O_4  and  C_21 
ROOT
ATOM      1  O   UNL d   1       8.719  37.984  26.115  0.00  0.00    -0.323 OA
ATOM      2  O   UNL d   1       9.866  37.777  27.320  0.00  0.00    -0.323 OA
ATOM      3  N   UNL d   1      12.241  38.721  23.362  0.00  0.00    -0.400 N 
ATOM      4  C   UNL d   1      11.269  38.634  23.576  0.00  0.00     0.117 A 
ATOM      5  C   UNL d   1      10.544  38.759  22.838  0.00  0.00     0.069 A 
ATOM      6  C   UNL d   1      10.980  38.423  24.510  0.00  0.00    -0.026 A 
ATOM      7  C   UNL d   1      12.925  38.598  24.080  0.00  0.00     0.122 A 
ATOM      8  C   UNL d   1      12.557  38.940  22.394  0.00  0.00     0.160 A 
ATOM      9  C   UNL d   1      12.636  38.387  25.014  0.00  0.00     0.058 A 
ATOM     10  C   UNL d   1      11.664  38.299  25.229  0.00  0.00    -0.045 A 
ATOM     11  C   UNL d   1      10.837  38.979  21.863  0.00  0.00    -0.045 A 
ATOM     12  C   UNL d   1      11.850  39.070  21.640  0.00  0.00     0.002 A 
ATOM     13  C   UNL d   1       9.963  38.335  24.719  0.00  0.00     0.049 A 
ATOM     14  C   UNL d   1      11.378  38.079  26.207  0.00  0.00     0.047 A 
ATOM     15  C   UNL d   1      12.179  39.299  20.631  0.00  0.00     0.110 A 
ATOM     16  C   UNL d   1      10.083  39.110  21.094  0.00  0.00     0.011 A 
ATOM     17  C   UNL d   1       9.654  38.115  25.689  0.00  0.00     0.105 A 
ATOM     18  C   UNL d   1      10.366  37.986  26.438  0.00  0.00     0.105 A 
ATOM     19  C   UNL d   1      11.444  39.434  19.845  0.00  0.00     0.102 A 
ATOM     20  C   UNL d   1      10.388  39.339  20.079  0.00  0.00     0.040 A 
ATOM     21  C   UNL d   1       8.850  37.776  27.121  0.00  0.00     0.352 A 
ENDROOT
BRANCH  15  22
ATOM     22  O   UNL d   1      13.155  39.384  20.427  0.00  0.00    -0.352 OA
ATOM     23  C   UNL d   1      13.597  40.280  20.464  0.00  0.00     0.210 C 
ENDBRANCH  15  22
BRANCH  19  24
ATOM     24  O   UNL d   1      11.736  39.645  18.913  0.00  0.00    -0.353 OA
ATOM     25  C   UNL d   1      11.069  39.648  18.168  0.00  0.00     0.210 C 
ENDBRANCH  19  24
TORSDOF 2
ENDMDL
MODEL 2
REMARK VINA RESULT:    -9.740      1.833      2.289
REMARK INTER + INTRA:          -7.900
REMARK INTER:                 -10.896
REMARK INTRA:                   2.995
REMARK UNBOUND:                 2.978
REMARK  2 active torsions:
REMARK  status: ('A' for Active; 'I' for Inactive)
REMARK    1  A    between atoms: O_3  and  C_17 
REMARK    2  A    between atoms: O_4  and  C_21 
ROOT
ATOM      1  O   UNL d   1       6.754  36.780  24.225  0.00  0.00    -0.323 OA
ATOM      2  O   UNL d   1       7.707  36.285  25.512  0.00  0.00    -0.323 OA
ATOM      3  N   UNL d   1      10.418  39.048  22.825  0.00  0.00    -0.400 N 
ATOM      4  C   UNL d   1       9.468  38.742  22.759  0.00  0.00     0.117 A 
ATOM      5  C   UNL d   1       8.863  39.041  21.965  0.00  0.00     0.069 A 
ATOM      6  C   UNL d   1       9.087  38.140  23.461  0.00  0.00    -0.026 A 
ATOM      7  C   UNL d   1      10.987  38.753  23.593  0.00  0.00     0.122 A 
ATOM      8  C   UNL d   1      10.828  39.675  22.101  0.00  0.00     0.160 A 
ATOM      9  C   UNL d   1      10.605  38.152  24.295  0.00  0.00     0.058 A 
ATOM     10  C   UNL d   1       9.656  37.845  24.229  0.00  0.00    -0.045 A 
ATOM     11  C   UNL d   1       9.253  39.668  21.230  0.00  0.00    -0.045 A 
ATOM     12  C   UNL d   1      10.242  39.987  21.299  0.00  0.00     0.002 A 
ATOM     13  C   UNL d   1       8.096  37.830  23.379  0.00  0.00     0.049 A 
ATOM     14  C   UNL d   1       9.273  37.219  24.968  0.00  0.00     0.047 A 
ATOM     15  C   UNL d   1      10.670  40.640  20.545  0.00  0.00     0.110 A 
ATOM     16  C   UNL d   1       8.624  39.979  20.404  0.00  0.00     0.011 A 
ATOM     17  C   UNL d   1       7.692  37.203  24.106  0.00  0.00     0.105 A 
ATOM     18  C   UNL d   1       8.284  36.895  24.906  0.00  0.00     0.105 A 
ATOM     19  C   UNL d   1      10.060  40.964  19.709  0.00  0.00     0.102 A 
ATOM     20  C   UNL d   1       9.029  40.632  19.638  0.00  0.00     0.040 A 
ATOM     21  C   UNL d   1       6.764  36.214  25.092  0.00  0.00     0.352 A 
ENDROOT
BRANCH  15  22
ATOM     22  O   UNL d   1      11.621  40.940  20.620  0.00  0.00    -0.352 OA
ATOM     23  C   UNL d   1      12.352  40.395  20.211  0.00  0.00     0.210 C 
ENDBRANCH  15  22
BRANCH  19  24
ATOM     24  O   UNL d   1      10.444  41.566  19.009  0.00  0.00    -0.353 OA
ATOM     25  C   UNL d   1       9.905  41.801  18.200  0.00  0.00     0.210 C 
ENDBRANCH  19  24
TORSDOF 2
ENDMDL
MODEL 3
REMARK VINA RESULT:    -9.149      4.649      6.954
REMARK INTER + INTRA:          -7.240
REMARK INTER:                 -10.286
REMARK INTRA:                   3.046
REMARK UNBOUND:                 2.978
REMARK  2 active torsions:
REMARK  status: ('A' for Active; 'I' for Inactive)
REMARK    1  A    between atoms: O_3  and  C_17 
REMARK    2  A    between atoms: O_4  and  C_21 
ROOT
ATOM      1  O   UNL d   1       6.697  32.912  22.425  0.00  0.00    -0.323 OA
ATOM      2  O   UNL d   1       6.729  31.345  23.019  0.00  0.00    -0.323 OA
ATOM      3  N   UNL d   1       8.892  34.036  26.226  0.00  0.00    -0.400 N 
ATOM      4  C   UNL d   1       8.463  34.227  25.343  0.00  0.00     0.117 A 
ATOM      5  C   UNL d   1       8.435  35.196  24.961  0.00  0.00     0.069 A 
ATOM      6  C   UNL d   1       8.053  33.484  24.815  0.00  0.00    -0.026 A 
ATOM      7  C   UNL d   1       8.912  33.101  26.580  0.00  0.00     0.122 A 
ATOM      8  C   UNL d   1       9.323  34.800  26.787  0.00  0.00     0.160 A 
ATOM      9  C   UNL d   1       8.502  32.357  26.052  0.00  0.00     0.058 A 
ATOM     10  C   UNL d   1       8.072  32.549  25.169  0.00  0.00    -0.045 A 
ATOM     11  C   UNL d   1       8.860  35.975  25.506  0.00  0.00    -0.045 A 
ATOM     12  C   UNL d   1       9.307  35.776  26.425  0.00  0.00     0.002 A 
ATOM     13  C   UNL d   1       7.610  33.699  23.897  0.00  0.00     0.049 A 
ATOM     14  C   UNL d   1       7.649  31.764  24.630  0.00  0.00     0.047 A 
ATOM     15  C   UNL d   1       9.756  36.571  27.010  0.00  0.00     0.110 A 
ATOM     16  C   UNL d   1       8.831  36.984  25.108  0.00  0.00     0.011 A 
ATOM     17  C   UNL d   1       7.180  32.930  23.340  0.00  0.00     0.105 A 
ATOM     18  C   UNL d   1       7.200  31.956  23.709  0.00  0.00     0.105 A 
ATOM     19  C   UNL d   1       9.740  37.589  26.632  0.00  0.00     0.102 A 
ATOM     20  C   UNL d   1       9.274  37.796  25.675  0.00  0.00     0.040 A 
ATOM     21  C   UNL d   1       6.418  31.935  22.227  0.00  0.00     0.352 A 
ENDROOT
BRANCH  15  22
ATOM     22  O   UNL d   1      10.183  36.369  27.891  0.00  0.00    -0.352 OA
ATOM     23  C   UNL d   1      11.146  36.105  27.932  0.00  0.00     0.210 C 
ENDBRANCH  15  22
BRANCH  19  24
ATOM     24  O   UNL d   1      10.151  38.329  27.163  0.00  0.00    -0.353 OA
ATOM     25  C   UNL d   1      10.339  39.211  26.731  0.00  0.00     0.210 C 
ENDBRANCH  19  24
TORSDOF 2
ENDMDL
MODEL 4
REMARK VINA RESULT:    -8.944     30.501     32.860
REMARK INTER + INTRA:          -7.011
REMARK INTER:                  -9.983
REMARK INTRA:                   2.972
REMARK UNBOUND:                 2.978
REMARK  2 active torsions:
REMARK  status: ('A' for Active; 'I' for Inactive)
REMARK    1  A    between atoms: O_3  and  C_17 
REMARK    2  A    between atoms: O_4  and  C_21 
ROOT
ATOM      1  O   UNL d   1      32.878  32.669  44.813  0.00  0.00    -0.323 OA
ATOM      2  O   UNL d   1      31.313  32.538  44.226  0.00  0.00    -0.323 OA
ATOM      3  N   UNL d   1      33.302  28.299  43.696  0.00  0.00    -0.400 N 
ATOM      4  C   UNL d   1      33.627  29.171  44.062  0.00  0.00     0.117 A 
ATOM      5  C   UNL d   1      34.597  29.268  44.430  0.00  0.00     0.069 A 
ATOM      6  C   UNL d   1      33.018  29.964  44.079  0.00  0.00    -0.026 A 
ATOM      7  C   UNL d   1      32.369  28.220  43.347  0.00  0.00     0.122 A 
ATOM      8  C   UNL d   1      33.925  27.464  43.673  0.00  0.00     0.160 A 
ATOM      9  C   UNL d   1      31.760  29.013  43.363  0.00  0.00     0.058 A 
ATOM     10  C   UNL d   1      32.085  29.885  43.729  0.00  0.00    -0.045 A 
ATOM     11  C   UNL d   1      35.237  28.446  44.417  0.00  0.00    -0.045 A 
ATOM     12  C   UNL d   1      34.898  27.539  44.035  0.00  0.00     0.002 A 
ATOM     13  C   UNL d   1      33.371  30.866  44.463  0.00  0.00     0.049 A 
ATOM     14  C   UNL d   1      31.439  30.703  43.740  0.00  0.00     0.047 A 
ATOM     15  C   UNL d   1      35.546  26.669  44.011  0.00  0.00     0.110 A 
ATOM     16  C   UNL d   1      36.246  28.548  44.800  0.00  0.00     0.011 A 
ATOM     17  C   UNL d   1      32.743  31.697  44.484  0.00  0.00     0.105 A 
ATOM     18  C   UNL d   1      31.771  31.615  44.120  0.00  0.00     0.105 A 
ATOM     19  C   UNL d   1      36.561  26.746  44.388  0.00  0.00     0.102 A 
ATOM     20  C   UNL d   1      36.913  27.692  44.785  0.00  0.00     0.040 A 
ATOM     21  C   UNL d   1      31.996  33.188  44.654  0.00  0.00     0.352 A 
ENDROOT
BRANCH  15  22
ATOM     22  O   UNL d   1      35.212  25.801  43.642  0.00  0.00    -0.352 OA
ATOM     23  C   UNL d   1      35.295  25.607  42.665  0.00  0.00     0.210 C 
ENDBRANCH  15  22
BRANCH  19  24
ATOM     24  O   UNL d   1      37.166  25.951  44.370  0.00  0.00    -0.353 OA
ATOM     25  C   UNL d   1      38.062  25.994  44.812  0.00  0.00     0.210 C 
ENDBRANCH  19  24
TORSDOF 2
ENDMDL
MODEL 5
REMARK VINA RESULT:    -8.709     30.252     32.607
REMARK INTER + INTRA:          -6.749
REMARK INTER:                  -9.743
REMARK INTRA:                   2.995
REMARK UNBOUND:                 2.978
REMARK  2 active torsions:
REMARK  status: ('A' for Active; 'I' for Inactive)
REMARK    1  A    between atoms: O_3  and  C_17 
REMARK    2  A    between atoms: O_4  and  C_21 
ROOT
ATOM      1  O   UNL d   1      37.266  27.413  44.887  0.00  0.00    -0.323 OA
ATOM      2  O   UNL d   1      36.840  25.916  44.264  0.00  0.00    -0.323 OA
ATOM      3  N   UNL d   1      33.115  28.733  43.640  0.00  0.00    -0.400 N 
ATOM      4  C   UNL d   1      34.021  28.869  44.041  0.00  0.00     0.117 A 
ATOM      5  C   UNL d   1      34.300  29.793  44.432  0.00  0.00     0.069 A 
ATOM      6  C   UNL d   1      34.673  28.111  44.070  0.00  0.00    -0.026 A 
ATOM      7  C   UNL d   1      32.861  27.841  43.269  0.00  0.00     0.122 A 
ATOM      8  C   UNL d   1      32.426  29.513  43.603  0.00  0.00     0.160 A 
ATOM      9  C   UNL d   1      33.513  27.083  43.298  0.00  0.00     0.058 A 
ATOM     10  C   UNL d   1      34.419  27.218  43.698  0.00  0.00    -0.045 A 
ATOM     11  C   UNL d   1      33.626  30.587  44.406  0.00  0.00    -0.045 A 
ATOM     12  C   UNL d   1      32.683  30.446  43.989  0.00  0.00     0.002 A 
ATOM     13  C   UNL d   1      35.614  28.268  44.491  0.00  0.00     0.049 A 
ATOM     14  C   UNL d   1      35.088  26.420  43.721  0.00  0.00     0.047 A 
ATOM     15  C   UNL d   1      31.964  31.258  43.950  0.00  0.00     0.110 A 
ATOM     16  C   UNL d   1      33.917  31.549  44.813  0.00  0.00     0.011 A 
ATOM     17  C   UNL d   1      36.299  27.484  44.525  0.00  0.00     0.105 A 
ATOM     18  C   UNL d   1      36.034  26.554  44.137  0.00  0.00     0.105 A 
ATOM     19  C   UNL d   1      32.232  32.230  44.351  0.00  0.00     0.102 A 
ATOM     20  C   UNL d   1      33.215  32.376  44.786  0.00  0.00     0.040 A 
ATOM     21  C   UNL d   1      37.600  26.446  44.726  0.00  0.00     0.352 A 
ENDROOT
BRANCH  15  22
ATOM     22  O   UNL d   1      31.061  31.112  43.547  0.00  0.00    -0.352 OA
ATOM     23  C   UNL d   1      30.906  31.312  42.580  0.00  0.00     0.210 C 
ENDBRANCH  15  22
BRANCH  19  24
ATOM     24  O   UNL d   1      31.577  32.985  44.320  0.00  0.00    -0.353 OA
ATOM     25  C   UNL d   1      31.642  33.730  44.983  0.00  0.00     0.210 C 
ENDBRANCH  19  24
TORSDOF 2
ENDMDL
