MODEL 1
REMARK VINA RESULT:    -8.131      0.000      0.000
REMARK INTER + INTRA:          -5.135
REMARK INTER:                 -10.358
REMARK INTRA:                   5.223
REMARK UNBOUND:                 5.373
REMARK  6 active torsions:
REMARK  status: ('A' for Active; 'I' for Inactive)
REMARK    1  A    between atoms: O_2  and  C_15 
REMARK    2  A    between atoms: O_3  and  C_17 
REMARK    3  A    between atoms: O_4  and  C_11 
REMARK    4  A    between atoms: O_6  and  C_22 
REMARK    5  A    between atoms: O_7  and  C_20 
REMARK    6  A    between atoms: C_10  and  C_13 
ROOT
ATOM      1  O   UNL d   1      39.489   2.653  -5.862  0.00  0.00    -0.309 OA
ATOM      2  O   UNL d   1      42.510   3.027  -6.249  0.00  0.00    -0.287 OA
ATOM      3  C   UNL d   1      41.155   2.097  -5.594  0.00  0.00     0.084 A 
ATOM      4  C   UNL d   1      40.171   1.972  -5.466  0.00  0.00     0.096 A 
ATOM      5  C   UNL d   1      39.837   3.475  -6.398  0.00  0.00     0.090 A 
ATOM      6  C   UNL d   1      41.798   1.435  -5.209  0.00  0.00     0.119 A 
ATOM      7  C   UNL d   1      41.524   2.912  -6.127  0.00  0.00     0.190 A 
ATOM      8  C   UNL d   1      39.830   1.184  -4.952  0.00  0.00     0.078 A 
ATOM      9  C   UNL d   1      41.456   0.648  -4.695  0.00  0.00     0.136 A 
ATOM     10  C   UNL d   1      40.862   3.606  -6.532  0.00  0.00     0.094 A 
ATOM     11  C   UNL d   1      40.473   0.523  -4.567  0.00  0.00     0.107 A 
ENDROOT
BRANCH   5  12
ATOM     12  C   UNL d   1      39.191   4.135  -6.782  0.00  0.00     0.001 A 
ATOM     13  C   UNL d   1      38.531   4.593  -6.187  0.00  0.00     0.053 A 
ATOM     14  C   UNL d   1      37.885   5.253  -6.571  0.00  0.00     0.099 A 
ATOM     15  C   UNL d   1      37.900   5.455  -7.550  0.00  0.00     0.101 A 
ATOM     16  C   UNL d   1      38.560   4.997  -8.146  0.00  0.00     0.040 A 
ATOM     17  C   UNL d   1      39.206   4.337  -7.761  0.00  0.00     0.017 A 
BRANCH  14  18
ATOM     18  O   UNL d   1      37.224   5.711  -5.976  0.00  0.00    -0.358 OA
ATOM     19  H   UNL d   1      36.714   5.413  -5.791  0.00  0.00     0.217 HD
ENDBRANCH  14  18
BRANCH  15  20
ATOM     20  O   UNL d   1      37.255   6.115  -7.935  0.00  0.00    -0.353 OA
ATOM     21  C   UNL d   1      37.324   6.382  -8.895  0.00  0.00     0.210 C 
ENDBRANCH  15  20
ENDBRANCH   5  12
BRANCH   6  22
ATOM     22  O   UNL d   1      42.781   1.560  -5.337  0.00  0.00    -0.357 OA
ATOM     23  H   UNL d   1      43.102   1.916  -4.943  0.00  0.00     0.218 HD
ENDBRANCH   6  22
BRANCH  11  24
ATOM     24  O   UNL d   1      40.132  -0.265  -4.053  0.00  0.00    -0.353 OA
ATOM     25  C   UNL d   1      39.251  -0.211  -3.582  0.00  0.00     0.210 C 
ENDBRANCH  11  24
BRANCH   9  26
ATOM     26  O   UNL d   1      42.099  -0.014  -4.309  0.00  0.00    -0.351 OA
ATOM     27  C   UNL d   1      42.637  -0.600  -4.915  0.00  0.00     0.210 C 
ENDBRANCH   9  26
TORSDOF 6
ENDMDL
MODEL 2
REMARK VINA RESULT:    -7.961      1.201      5.740
REMARK INTER + INTRA:          -4.916
REMARK INTER:                 -10.127
REMARK INTRA:                   5.211
REMARK UNBOUND:                 5.373
REMARK  6 active torsions:
REMARK  status: ('A' for Active; 'I' for Inactive)
REMARK    1  A    between atoms: O_2  and  C_15 
REMARK    2  A    between atoms: O_3  and  C_17 
REMARK    3  A    between atoms: O_4  and  C_11 
REMARK    4  A    between atoms: O_6  and  C_22 
REMARK    5  A    between atoms: O_7  and  C_20 
REMARK    6  A    between atoms: C_10  and  C_13 
ROOT
ATOM      1  O   UNL d   1      39.396   2.871  -5.744  0.00  0.00    -0.309 OA
ATOM      2  O   UNL d   1      39.777   2.858  -8.789  0.00  0.00    -0.287 OA
ATOM      3  C   UNL d   1      39.099   3.603  -7.335  0.00  0.00     0.084 A 
ATOM      4  C   UNL d   1      38.973   3.611  -6.343  0.00  0.00     0.096 A 
ATOM      5  C   UNL d   1      39.958   2.113  -6.185  0.00  0.00     0.090 A 
ATOM      6  C   UNL d   1      38.687   4.321  -7.897  0.00  0.00     0.119 A 
ATOM      7  C   UNL d   1      39.657   2.855  -7.796  0.00  0.00     0.190 A 
ATOM      8  C   UNL d   1      38.434   4.335  -5.913  0.00  0.00     0.078 A 
ATOM      9  C   UNL d   1      38.148   5.045  -7.467  0.00  0.00     0.136 A 
ATOM     10  C   UNL d   1      40.090   2.105  -7.218  0.00  0.00     0.094 A 
ATOM     11  C   UNL d   1      38.022   5.053  -6.475  0.00  0.00     0.107 A 
ENDROOT
BRANCH   5  12
ATOM     12  C   UNL d   1      40.369   1.397  -5.620  0.00  0.00     0.001 A 
ATOM     13  C   UNL d   1      39.831   0.958  -4.900  0.00  0.00     0.053 A 
ATOM     14  C   UNL d   1      40.241   0.242  -4.335  0.00  0.00     0.099 A 
ATOM     15  C   UNL d   1      41.189  -0.034  -4.490  0.00  0.00     0.101 A 
ATOM     16  C   UNL d   1      41.727   0.405  -5.209  0.00  0.00     0.040 A 
ATOM     17  C   UNL d   1      41.317   1.120  -5.774  0.00  0.00     0.017 A 
BRANCH  14  18
ATOM     18  O   UNL d   1      39.703  -0.197  -3.615  0.00  0.00    -0.358 OA
ATOM     19  H   UNL d   1      39.262   0.121  -3.319  0.00  0.00     0.217 HD
ENDBRANCH  14  18
BRANCH  15  20
ATOM     20  O   UNL d   1      41.600  -0.750  -3.925  0.00  0.00    -0.353 OA
ATOM     21  C   UNL d   1      42.581  -0.933  -3.984  0.00  0.00     0.210 C 
ENDBRANCH  15  20
ENDBRANCH   5  12
BRANCH   6  22
ATOM     22  O   UNL d   1      38.813   4.313  -8.888  0.00  0.00    -0.357 OA
ATOM     23  H   UNL d   1      39.343   4.522  -9.135  0.00  0.00     0.218 HD
ENDBRANCH   6  22
BRANCH  11  24
ATOM     24  O   UNL d   1      37.484   5.777  -6.045  0.00  0.00    -0.353 OA
ATOM     25  C   UNL d   1      37.191   5.685  -5.093  0.00  0.00     0.210 C 
ENDBRANCH  11  24
BRANCH   9  26
ATOM     26  O   UNL d   1      37.736   5.762  -8.028  0.00  0.00    -0.351 OA
ATOM     27  C   UNL d   1      38.288   6.539  -8.332  0.00  0.00     0.210 C 
ENDBRANCH   9  26
TORSDOF 6
ENDMDL
MODEL 3
REMARK VINA RESULT:    -7.772     13.643     17.862
REMARK INTER + INTRA:          -4.671
REMARK INTER:                  -9.709
REMARK INTRA:                   5.038
REMARK UNBOUND:                 5.373
REMARK  6 active torsions:
REMARK  status: ('A' for Active; 'I' for Inactive)
REMARK    1  A    between atoms: O_2  and  C_15 
REMARK    2  A    between atoms: O_3  and  C_17 
REMARK    3  A    between atoms: O_4  and  C_11 
REMARK    4  A    between atoms: O_6  and  C_22 
REMARK    5  A    between atoms: O_7  and  C_20 
REMARK    6  A    between atoms: C_10  and  C_13 
ROOT
ATOM      1  O   UNL d   1      35.145 -11.740   0.749  0.00  0.00    -0.309 OA
ATOM      2  O   UNL d   1      32.448 -11.780  -0.714  0.00  0.00    -0.287 OA
ATOM      3  C   UNL d   1      34.095 -11.152  -0.557  0.00  0.00     0.084 A 
ATOM      4  C   UNL d   1      34.975 -11.137  -0.083  0.00  0.00     0.096 A 
ATOM      5  C   UNL d   1      34.388 -12.368   1.091  0.00  0.00     0.090 A 
ATOM      6  C   UNL d   1      33.946 -10.567  -1.355  0.00  0.00     0.119 A 
ATOM      7  C   UNL d   1      33.324 -11.772  -0.232  0.00  0.00     0.190 A 
ATOM      8  C   UNL d   1      35.707 -10.536  -0.406  0.00  0.00     0.078 A 
ATOM      9  C   UNL d   1      34.677  -9.967  -1.678  0.00  0.00     0.136 A 
ATOM     10  C   UNL d   1      33.471 -12.385   0.597  0.00  0.00     0.094 A 
ATOM     11  C   UNL d   1      35.558  -9.952  -1.204  0.00  0.00     0.107 A 
ENDROOT
BRANCH   5  12
ATOM     12  C   UNL d   1      34.540 -12.952   1.889  0.00  0.00     0.001 A 
ATOM     13  C   UNL d   1      34.174 -12.685   2.780  0.00  0.00     0.053 A 
ATOM     14  C   UNL d   1      34.326 -13.268   3.578  0.00  0.00     0.099 A 
ATOM     15  C   UNL d   1      34.844 -14.119   3.484  0.00  0.00     0.101 A 
ATOM     16  C   UNL d   1      35.210 -14.386   2.593  0.00  0.00     0.040 A 
ATOM     17  C   UNL d   1      35.058 -13.802   1.795  0.00  0.00     0.017 A 
BRANCH  14  18
ATOM     18  O   UNL d   1      33.961 -13.002   4.470  0.00  0.00    -0.358 OA
ATOM     19  H   UNL d   1      34.311 -13.058   4.978  0.00  0.00     0.217 HD
ENDBRANCH  14  18
BRANCH  15  20
ATOM     20  O   UNL d   1      34.996 -14.702   4.282  0.00  0.00    -0.353 OA
ATOM     21  C   UNL d   1      35.731 -15.379   4.273  0.00  0.00     0.210 C 
ENDBRANCH  15  20
ENDBRANCH   5  12
BRANCH   6  22
ATOM     22  O   UNL d   1      33.066 -10.583  -1.829  0.00  0.00    -0.357 OA
ATOM     23  H   UNL d   1      32.975 -10.224  -2.326  0.00  0.00     0.218 HD
ENDBRANCH   6  22
BRANCH  11  24
ATOM     24  O   UNL d   1      36.289  -9.351  -1.527  0.00  0.00    -0.353 OA
ATOM     25  C   UNL d   1      37.229  -9.497  -1.218  0.00  0.00     0.210 C 
ENDBRANCH  11  24
BRANCH   9  26
ATOM     26  O   UNL d   1      34.529  -9.382  -2.475  0.00  0.00    -0.351 OA
ATOM     27  C   UNL d   1      33.991  -8.544  -2.387  0.00  0.00     0.210 C 
ENDBRANCH   9  26
TORSDOF 6
ENDMDL
MODEL 4
REMARK VINA RESULT:    -7.659      1.305      2.491
REMARK INTER + INTRA:          -4.525
REMARK INTER:                  -9.617
REMARK INTRA:                   5.092
REMARK UNBOUND:                 5.373
REMARK  6 active torsions:
REMARK  status: ('A' for Active; 'I' for Inactive)
REMARK    1  A    between atoms: O_2  and  C_15 
REMARK    2  A    between atoms: O_3  and  C_17 
REMARK    3  A    between atoms: O_4  and  C_11 
REMARK    4  A    between atoms: O_6  and  C_22 
REMARK    5  A    between atoms: O_7  and  C_20 
REMARK    6  A    between atoms: C_10  and  C_13 
ROOT
ATOM      1  O   UNL d   1      41.140   2.322  -6.187  0.00  0.00    -0.309 OA
ATOM      2  O   UNL d   1      39.893   0.562  -4.004  0.00  0.00    -0.287 OA
ATOM      3  C   UNL d   1      41.211   0.890  -5.138  0.00  0.00     0.084 A 
ATOM      4  C   UNL d   1      41.621   1.461  -5.850  0.00  0.00     0.096 A 
ATOM      5  C   UNL d   1      40.221   2.591  -5.778  0.00  0.00     0.090 A 
ATOM      6  C   UNL d   1      41.684   0.067  -4.824  0.00  0.00     0.119 A 
ATOM      7  C   UNL d   1      40.293   1.140  -4.715  0.00  0.00     0.190 A 
ATOM      8  C   UNL d   1      42.503   1.209  -6.247  0.00  0.00     0.078 A 
ATOM      9  C   UNL d   1      42.566  -0.185  -5.221  0.00  0.00     0.136 A 
ATOM     10  C   UNL d   1      39.794   1.996  -5.037  0.00  0.00     0.094 A 
ATOM     11  C   UNL d   1      42.976   0.386  -5.933  0.00  0.00     0.107 A 
ENDROOT
BRANCH   5  12
ATOM     12  C   UNL d   1      39.751   3.415  -6.094  0.00  0.00     0.001 A 
ATOM     13  C   UNL d   1      40.154   4.315  -5.928  0.00  0.00     0.053 A 
ATOM     14  C   UNL d   1      39.684   5.139  -6.245  0.00  0.00     0.099 A 
ATOM     15  C   UNL d   1      38.811   5.063  -6.727  0.00  0.00     0.101 A 
ATOM     16  C   UNL d   1      38.408   4.163  -6.893  0.00  0.00     0.040 A 
ATOM     17  C   UNL d   1      38.879   3.339  -6.577  0.00  0.00     0.017 A 
BRANCH  14  18
ATOM     18  O   UNL d   1      40.086   6.040  -6.079  0.00  0.00    -0.358 OA
ATOM     19  H   UNL d   1      39.742   6.494  -5.837  0.00  0.00     0.217 HD
ENDBRANCH  14  18
BRANCH  15  20
ATOM     20  O   UNL d   1      38.341   5.887  -7.043  0.00  0.00    -0.353 OA
ATOM     21  C   UNL d   1      37.648   5.823  -7.760  0.00  0.00     0.210 C 
ENDBRANCH  15  20
ENDBRANCH   5  12
BRANCH   6  22
ATOM     22  O   UNL d   1      41.275  -0.504  -4.112  0.00  0.00    -0.357 OA
ATOM     23  H   UNL d   1      40.965  -0.241  -3.644  0.00  0.00     0.218 HD
ENDBRANCH   6  22
BRANCH  11  24
ATOM     24  O   UNL d   1      43.858   0.133  -6.330  0.00  0.00    -0.353 OA
ATOM     25  C   UNL d   1      44.190   0.602  -7.149  0.00  0.00     0.210 C 
ENDBRANCH  11  24
BRANCH   9  26
ATOM     26  O   UNL d   1      43.039  -1.009  -4.907  0.00  0.00    -0.351 OA
ATOM     27  C   UNL d   1      43.555  -0.993  -4.051  0.00  0.00     0.210 C 
ENDBRANCH   9  26
TORSDOF 6
ENDMDL
MODEL 5
REMARK VINA RESULT:    -7.591      1.588      3.478
REMARK INTER + INTRA:          -4.438
REMARK INTER:                  -9.494
REMARK INTRA:                   5.056
REMARK UNBOUND:                 5.373
REMARK  6 active torsions:
REMARK  status: ('A' for Active; 'I' for Inactive)
REMARK    1  A    between atoms: O_2  and  C_15 
REMARK    2  A    between atoms: O_3  and  C_17 
REMARK    3  A    between atoms: O_4  and  C_11 
REMARK    4  A    between atoms: O_6  and  C_22 
REMARK    5  A    between atoms: O_7  and  C_20 
REMARK    6  A    between atoms: C_10  and  C_13 
ROOT
ATOM      1  O   UNL d   1      41.795   1.202  -5.718  0.00  0.00    -0.309 OA
ATOM      2  O   UNL d   1      40.892  -0.859  -3.631  0.00  0.00    -0.287 OA
ATOM      3  C   UNL d   1      42.156  -0.188  -4.672  0.00  0.00     0.084 A 
ATOM      4  C   UNL d   1      42.454   0.482  -5.352  0.00  0.00     0.096 A 
ATOM      5  C   UNL d   1      40.814   1.224  -5.370  0.00  0.00     0.090 A 
ATOM      6  C   UNL d   1      42.799  -0.873  -4.331  0.00  0.00     0.119 A 
ATOM      7  C   UNL d   1      41.179  -0.184  -4.311  0.00  0.00     0.190 A 
ATOM      8  C   UNL d   1      43.395   0.467  -5.691  0.00  0.00     0.078 A 
ATOM      9  C   UNL d   1      43.740  -0.888  -4.669  0.00  0.00     0.136 A 
ATOM     10  C   UNL d   1      40.503   0.526  -4.662  0.00  0.00     0.094 A 
ATOM     11  C   UNL d   1      44.038  -0.218  -5.349  0.00  0.00     0.107 A 
ENDROOT
BRANCH   5  12
ATOM     12  C   UNL d   1      40.173   1.911  -5.714  0.00  0.00     0.001 A 
ATOM     13  C   UNL d   1      39.435   1.640  -6.332  0.00  0.00     0.053 A 
ATOM     14  C   UNL d   1      38.794   2.326  -6.677  0.00  0.00     0.099 A 
ATOM     15  C   UNL d   1      38.892   3.283  -6.402  0.00  0.00     0.101 A 
ATOM     16  C   UNL d   1      39.630   3.554  -5.784  0.00  0.00     0.040 A 
ATOM     17  C   UNL d   1      40.270   2.867  -5.440  0.00  0.00     0.017 A 
BRANCH  14  18
ATOM     18  O   UNL d   1      38.055   2.057  -7.295  0.00  0.00    -0.358 OA
ATOM     19  H   UNL d   1      38.063   1.498  -7.562  0.00  0.00     0.217 HD
ENDBRANCH  14  18
BRANCH  15  20
ATOM     20  O   UNL d   1      38.251   3.969  -6.746  0.00  0.00    -0.353 OA
ATOM     21  C   UNL d   1      38.252   4.892  -6.362  0.00  0.00     0.210 C 
ENDBRANCH  15  20
ENDBRANCH   5  12
BRANCH   6  22
ATOM     22  O   UNL d   1      42.501  -1.543  -3.650  0.00  0.00    -0.357 OA
ATOM     23  H   UNL d   1      42.920  -1.830  -3.294  0.00  0.00     0.218 HD
ENDBRANCH   6  22
BRANCH  11  24
ATOM     24  O   UNL d   1      44.979  -0.233  -5.687  0.00  0.00    -0.353 OA
ATOM     25  C   UNL d   1      45.337   0.545  -6.203  0.00  0.00     0.210 C 
ENDBRANCH  11  24
BRANCH   9  26
ATOM     26  O   UNL d   1      44.383  -1.573  -4.327  0.00  0.00    -0.351 OA
ATOM     27  C   UNL d   1      44.444  -2.467  -4.771  0.00  0.00     0.210 C 
ENDBRANCH   9  26
TORSDOF 6
ENDMDL
