MODEL 1
REMARK VINA RESULT:    -8.124      0.000      0.000
REMARK INTER + INTRA:          -7.879
REMARK INTER:                  -9.815
REMARK INTRA:                   1.937
REMARK UNBOUND:                 1.908
REMARK  5 active torsions:
REMARK  status: ('A' for Active; 'I' for Inactive)
REMARK    1  A    between atoms: O_2  and  C_13 
REMARK    2  A    between atoms: O_3  and  C_19 
REMARK    3  A    between atoms: O_5  and  C_17 
REMARK    4  A    between atoms: O_6  and  C_21 
REMARK    5  A    between atoms: C_8  and  C_10 
ROOT
ATOM      1  O   UNL d   1      37.658  40.591  12.162  0.00  0.00    -0.309 OA
ATOM      2  O   UNL d   1      40.447  41.322  12.991  0.00  0.00    -0.287 OA
ATOM      3  C   UNL d   1      39.153  40.173  12.931  0.00  0.00     0.081 A 
ATOM      4  C   UNL d   1      38.023  41.496  11.945  0.00  0.00     0.090 A 
ATOM      5  C   UNL d   1      38.223  39.929  12.655  0.00  0.00     0.095 A 
ATOM      6  C   UNL d   1      39.518  41.078  12.715  0.00  0.00     0.190 A 
ATOM      7  C   UNL d   1      38.953  41.740  12.222  0.00  0.00     0.094 A 
ATOM      8  C   UNL d   1      39.752  39.494  13.445  0.00  0.00     0.085 A 
ATOM      9  C   UNL d   1      37.829  38.990  12.873  0.00  0.00     0.075 A 
ATOM     10  C   UNL d   1      38.411  38.295  13.386  0.00  0.00     0.071 A 
ATOM     11  C   UNL d   1      39.379  38.549  13.674  0.00  0.00     0.074 A 
ENDROOT
BRANCH   4  12
ATOM     12  C   UNL d   1      37.459  42.158  11.452  0.00  0.00     0.001 A 
ATOM     13  C   UNL d   1      36.571  42.433  11.823  0.00  0.00     0.054 A 
ATOM     14  C   UNL d   1      36.007  43.095  11.330  0.00  0.00     0.102 A 
ATOM     15  C   UNL d   1      36.329  43.482  10.467  0.00  0.00     0.099 A 
ATOM     16  C   UNL d   1      37.217  43.208  10.096  0.00  0.00     0.040 A 
ATOM     17  C   UNL d   1      37.781  42.546  10.589  0.00  0.00     0.017 A 
BRANCH  14  18
ATOM     18  O   UNL d   1      35.119  43.369  11.701  0.00  0.00    -0.353 OA
ATOM     19  C   UNL d   1      34.757  42.917  12.516  0.00  0.00     0.210 C 
ENDBRANCH  14  18
BRANCH  15  20
ATOM     20  O   UNL d   1      35.765  44.144   9.974  0.00  0.00    -0.358 OA
ATOM     21  H   UNL d   1      35.302  43.948   9.611  0.00  0.00     0.217 HD
ENDBRANCH  15  20
ENDBRANCH   4  12
BRANCH   8  22
ATOM     22  O   UNL d   1      40.681  39.748  13.716  0.00  0.00    -0.360 OA
ATOM     23  H   UNL d   1      40.800  39.903  14.304  0.00  0.00     0.217 HD
ENDBRANCH   8  22
BRANCH  10  24
ATOM     24  O   UNL d   1      38.042  37.390  13.601  0.00  0.00    -0.361 OA
ATOM     25  H   UNL d   1      38.233  36.895  13.281  0.00  0.00     0.217 HD
ENDBRANCH  10  24
TORSDOF 5
ENDMDL
MODEL 2
REMARK VINA RESULT:    -7.975     41.462     43.754
REMARK INTER + INTRA:          -7.700
REMARK INTER:                  -9.609
REMARK INTRA:                   1.909
REMARK UNBOUND:                 1.908
REMARK  5 active torsions:
REMARK  status: ('A' for Active; 'I' for Inactive)
REMARK    1  A    between atoms: O_2  and  C_13 
REMARK    2  A    between atoms: O_3  and  C_19 
REMARK    3  A    between atoms: O_5  and  C_17 
REMARK    4  A    between atoms: O_6  and  C_21 
REMARK    5  A    between atoms: C_8  and  C_10 
ROOT
ATOM      1  O   UNL d   1      40.966   0.916  -5.433  0.00  0.00    -0.309 OA
ATOM      2  O   UNL d   1      39.350  -0.423  -3.290  0.00  0.00    -0.287 OA
ATOM      3  C   UNL d   1      40.839  -0.248  -4.156  0.00  0.00     0.081 A 
ATOM      4  C   UNL d   1      40.016   1.187  -5.280  0.00  0.00     0.090 A 
ATOM      5  C   UNL d   1      41.378   0.199  -4.871  0.00  0.00     0.095 A 
ATOM      6  C   UNL d   1      39.888   0.023  -4.004  0.00  0.00     0.190 A 
ATOM      7  C   UNL d   1      39.477   0.741  -4.566  0.00  0.00     0.094 A 
ATOM      8  C   UNL d   1      41.254  -0.996  -3.563  0.00  0.00     0.085 A 
ATOM      9  C   UNL d   1      42.369  -0.073  -5.041  0.00  0.00     0.075 A 
ATOM     10  C   UNL d   1      42.804  -0.819  -4.460  0.00  0.00     0.071 A 
ATOM     11  C   UNL d   1      42.243  -1.284  -3.716  0.00  0.00     0.074 A 
ENDROOT
BRANCH   4  12
ATOM     12  C   UNL d   1      39.604   1.905  -5.842  0.00  0.00     0.001 A 
ATOM     13  C   UNL d   1      39.930   2.847  -5.768  0.00  0.00     0.054 A 
ATOM     14  C   UNL d   1      39.519   3.564  -6.330  0.00  0.00     0.102 A 
ATOM     15  C   UNL d   1      38.781   3.339  -6.966  0.00  0.00     0.099 A 
ATOM     16  C   UNL d   1      38.455   2.397  -7.041  0.00  0.00     0.040 A 
ATOM     17  C   UNL d   1      38.867   1.680  -6.479  0.00  0.00     0.017 A 
BRANCH  14  18
ATOM     18  O   UNL d   1      39.844   4.507  -6.255  0.00  0.00    -0.353 OA
ATOM     19  C   UNL d   1      40.782   4.690  -5.959  0.00  0.00     0.210 C 
ENDBRANCH  14  18
BRANCH  15  20
ATOM     20  O   UNL d   1      38.370   4.057  -7.529  0.00  0.00    -0.358 OA
ATOM     21  H   UNL d   1      37.854   4.343  -7.337  0.00  0.00     0.217 HD
ENDBRANCH  15  20
ENDBRANCH   4  12
BRANCH   8  22
ATOM     22  O   UNL d   1      40.706  -1.436  -2.852  0.00  0.00    -0.360 OA
ATOM     23  H   UNL d   1      40.903  -1.961  -2.589  0.00  0.00     0.217 HD
ENDBRANCH   8  22
BRANCH  10  24
ATOM     24  O   UNL d   1      43.755  -1.087  -4.615  0.00  0.00    -0.361 OA
ATOM     25  H   UNL d   1      44.197  -0.654  -4.650  0.00  0.00     0.217 HD
ENDBRANCH  10  24
TORSDOF 5
ENDMDL
MODEL 3
REMARK VINA RESULT:    -7.936     41.059     43.568
REMARK INTER + INTRA:          -7.652
REMARK INTER:                  -9.476
REMARK INTRA:                   1.824
REMARK UNBOUND:                 1.908
REMARK  5 active torsions:
REMARK  status: ('A' for Active; 'I' for Inactive)
REMARK    1  A    between atoms: O_2  and  C_13 
REMARK    2  A    between atoms: O_3  and  C_19 
REMARK    3  A    between atoms: O_5  and  C_17 
REMARK    4  A    between atoms: O_6  and  C_21 
REMARK    5  A    between atoms: C_8  and  C_10 
ROOT
ATOM      1  O   UNL d   1      39.881   2.576  -5.431  0.00  0.00    -0.309 OA
ATOM      2  O   UNL d   1      39.166   1.809  -8.242  0.00  0.00    -0.287 OA
ATOM      3  C   UNL d   1      39.456   3.029  -7.048  0.00  0.00     0.081 A 
ATOM      4  C   UNL d   1      39.829   1.611  -5.688  0.00  0.00     0.090 A 
ATOM      5  C   UNL d   1      39.694   3.285  -6.111  0.00  0.00     0.095 A 
ATOM      6  C   UNL d   1      39.405   2.064  -7.305  0.00  0.00     0.190 A 
ATOM      7  C   UNL d   1      39.591   1.355  -6.625  0.00  0.00     0.094 A 
ATOM      8  C   UNL d   1      39.260   3.757  -7.766  0.00  0.00     0.085 A 
ATOM      9  C   UNL d   1      39.752   4.286  -5.828  0.00  0.00     0.075 A 
ATOM     10  C   UNL d   1      39.560   5.030  -6.531  0.00  0.00     0.071 A 
ATOM     11  C   UNL d   1      39.312   4.764  -7.506  0.00  0.00     0.074 A 
ENDROOT
BRANCH   4  12
ATOM     12  C   UNL d   1      40.015   0.901  -5.008  0.00  0.00     0.001 A 
ATOM     13  C   UNL d   1      40.934   0.516  -4.927  0.00  0.00     0.054 A 
ATOM     14  C   UNL d   1      41.120  -0.193  -4.247  0.00  0.00     0.102 A 
ATOM     15  C   UNL d   1      40.387  -0.517  -3.649  0.00  0.00     0.099 A 
ATOM     16  C   UNL d   1      39.468  -0.132  -3.731  0.00  0.00     0.040 A 
ATOM     17  C   UNL d   1      39.282   0.577  -4.410  0.00  0.00     0.017 A 
BRANCH  14  18
ATOM     18  O   UNL d   1      42.040  -0.578  -4.165  0.00  0.00    -0.353 OA
ATOM     19  C   UNL d   1      42.732  -0.372  -4.857  0.00  0.00     0.210 C 
ENDBRANCH  14  18
BRANCH  15  20
ATOM     20  O   UNL d   1      40.574  -1.226  -2.969  0.00  0.00    -0.358 OA
ATOM     21  H   UNL d   1      40.164  -1.683  -2.876  0.00  0.00     0.217 HD
ENDBRANCH  15  20
ENDBRANCH   4  12
BRANCH   8  22
ATOM     22  O   UNL d   1      39.023   3.490  -8.701  0.00  0.00    -0.360 OA
ATOM     23  H   UNL d   1      39.397   3.112  -9.019  0.00  0.00     0.217 HD
ENDBRANCH   8  22
BRANCH  10  24
ATOM     24  O   UNL d   1      39.613   5.994  -6.269  0.00  0.00    -0.361 OA
ATOM     25  H   UNL d   1      40.023   6.368  -6.545  0.00  0.00     0.217 HD
ENDBRANCH  10  24
TORSDOF 5
ENDMDL
MODEL 4
REMARK VINA RESULT:    -7.781     26.638     27.876
REMARK INTER + INTRA:          -7.466
REMARK INTER:                  -9.391
REMARK INTRA:                   1.925
REMARK UNBOUND:                 1.908
REMARK  5 active torsions:
REMARK  status: ('A' for Active; 'I' for Inactive)
REMARK    1  A    between atoms: O_2  and  C_13 
REMARK    2  A    between atoms: O_3  and  C_19 
REMARK    3  A    between atoms: O_5  and  C_17 
REMARK    4  A    between atoms: O_6  and  C_21 
REMARK    5  A    between atoms: C_8  and  C_10 
ROOT
ATOM      1  O   UNL d   1      23.835  24.277  -4.554  0.00  0.00    -0.309 OA
ATOM      2  O   UNL d   1      21.521  26.183  -4.659  0.00  0.00    -0.287 OA
ATOM      3  C   UNL d   1      22.679  25.184  -5.471  0.00  0.00     0.081 A 
ATOM      4  C   UNL d   1      23.448  24.641  -3.706  0.00  0.00     0.090 A 
ATOM      5  C   UNL d   1      23.450  24.548  -5.436  0.00  0.00     0.095 A 
ATOM      6  C   UNL d   1      22.292  25.548  -4.624  0.00  0.00     0.190 A 
ATOM      7  C   UNL d   1      22.677  25.276  -3.742  0.00  0.00     0.094 A 
ATOM      8  C   UNL d   1      22.268  25.475  -6.383  0.00  0.00     0.085 A 
ATOM      9  C   UNL d   1      23.864  24.160  -6.310  0.00  0.00     0.075 A 
ATOM     10  C   UNL d   1      23.469  24.439  -7.233  0.00  0.00     0.071 A 
ATOM     11  C   UNL d   1      22.666  25.100  -7.269  0.00  0.00     0.074 A 
ENDROOT
BRANCH   4  12
ATOM     12  C   UNL d   1      23.832  24.369  -2.824  0.00  0.00     0.001 A 
ATOM     13  C   UNL d   1      23.647  23.458  -2.457  0.00  0.00     0.054 A 
ATOM     14  C   UNL d   1      24.032  23.187  -1.575  0.00  0.00     0.102 A 
ATOM     15  C   UNL d   1      24.601  23.827  -1.060  0.00  0.00     0.099 A 
ATOM     16  C   UNL d   1      24.787  24.738  -1.427  0.00  0.00     0.040 A 
ATOM     17  C   UNL d   1      24.402  25.010  -2.309  0.00  0.00     0.017 A 
BRANCH  14  18
ATOM     18  O   UNL d   1      23.846  22.275  -1.208  0.00  0.00    -0.353 OA
ATOM     19  C   UNL d   1      23.840  21.482  -1.818  0.00  0.00     0.210 C 
ENDBRANCH  14  18
BRANCH  15  20
ATOM     20  O   UNL d   1      24.986  23.555  -0.177  0.00  0.00    -0.358 OA
ATOM     21  H   UNL d   1      25.015  22.955  -0.023  0.00  0.00     0.217 HD
ENDBRANCH  15  20
ENDBRANCH   4  12
BRANCH   8  22
ATOM     22  O   UNL d   1      21.497  26.111  -6.406  0.00  0.00    -0.360 OA
ATOM     23  H   UNL d   1      21.390  26.451  -6.913  0.00  0.00     0.217 HD
ENDBRANCH   8  22
BRANCH  10  24
ATOM     24  O   UNL d   1      23.859  24.072  -8.078  0.00  0.00    -0.361 OA
ATOM     25  H   UNL d   1      23.485  23.871  -8.529  0.00  0.00     0.217 HD
ENDBRANCH  10  24
TORSDOF 5
ENDMDL
MODEL 5
REMARK VINA RESULT:    -7.758      1.082      5.289
REMARK INTER + INTRA:          -7.438
REMARK INTER:                  -9.384
REMARK INTRA:                   1.946
REMARK UNBOUND:                 1.908
REMARK  5 active torsions:
REMARK  status: ('A' for Active; 'I' for Inactive)
REMARK    1  A    between atoms: O_2  and  C_13 
REMARK    2  A    between atoms: O_3  and  C_19 
REMARK    3  A    between atoms: O_5  and  C_17 
REMARK    4  A    between atoms: O_6  and  C_21 
REMARK    5  A    between atoms: C_8  and  C_10 
ROOT
ATOM      1  O   UNL d   1      37.904  41.558  11.632  0.00  0.00    -0.309 OA
ATOM      2  O   UNL d   1      35.177  42.510  12.443  0.00  0.00    -0.287 OA
ATOM      3  C   UNL d   1      36.652  42.754  11.569  0.00  0.00     0.081 A 
ATOM      4  C   UNL d   1      37.337  40.997  12.235  0.00  0.00     0.090 A 
ATOM      5  C   UNL d   1      37.561  42.437  11.299  0.00  0.00     0.095 A 
ATOM      6  C   UNL d   1      36.086  42.193  12.172  0.00  0.00     0.190 A 
ATOM      7  C   UNL d   1      36.428  41.314  12.505  0.00  0.00     0.094 A 
ATOM      8  C   UNL d   1      36.283  43.666  11.230  0.00  0.00     0.085 A 
ATOM      9  C   UNL d   1      38.163  43.010  10.671  0.00  0.00     0.075 A 
ATOM     10  C   UNL d   1      37.813  43.926  10.320  0.00  0.00     0.071 A 
ATOM     11  C   UNL d   1      36.867  44.256  10.601  0.00  0.00     0.074 A 
ENDROOT
BRANCH   4  12
ATOM     12  C   UNL d   1      37.680  40.118  12.568  0.00  0.00     0.001 A 
ATOM     13  C   UNL d   1      38.548  40.075  13.062  0.00  0.00     0.054 A 
ATOM     14  C   UNL d   1      38.891  39.197  13.395  0.00  0.00     0.102 A 
ATOM     15  C   UNL d   1      38.365  38.361  13.234  0.00  0.00     0.099 A 
ATOM     16  C   UNL d   1      37.497  38.405  12.740  0.00  0.00     0.040 A 
ATOM     17  C   UNL d   1      37.154  39.283  12.407  0.00  0.00     0.017 A 
BRANCH  14  18
ATOM     18  O   UNL d   1      39.759  39.153  13.890  0.00  0.00    -0.353 OA
ATOM     19  C   UNL d   1      40.343  39.963  13.946  0.00  0.00     0.210 C 
ENDBRANCH  14  18
BRANCH  15  20
ATOM     20  O   UNL d   1      38.707  37.483  13.567  0.00  0.00    -0.358 OA
ATOM     21  H   UNL d   1      39.204  37.464  13.938  0.00  0.00     0.217 HD
ENDBRANCH  15  20
ENDBRANCH   4  12
BRANCH   8  22
ATOM     22  O   UNL d   1      35.372  43.974  11.507  0.00  0.00    -0.360 OA
ATOM     23  H   UNL d   1      35.065  43.671  11.952  0.00  0.00     0.217 HD
ENDBRANCH   8  22
BRANCH  10  24
ATOM     24  O   UNL d   1      38.383  44.484   9.716  0.00  0.00    -0.361 OA
ATOM     25  H   UNL d   1      38.958  44.301   9.577  0.00  0.00     0.217 HD
ENDBRANCH  10  24
TORSDOF 5
ENDMDL
