MODEL 1
REMARK VINA RESULT:   -13.242      0.000      0.000
REMARK INTER + INTRA:         -14.969
REMARK INTER:                 -16.283
REMARK INTRA:                   1.314
REMARK UNBOUND:                 1.369
REMARK  6 active torsions:
REMARK  status: ('A' for Active; 'I' for Inactive)
REMARK    1  A    between atoms: C_22  and  O_1 
REMARK    2  A    between atoms: C_24  and  O_2 
REMARK    3  A    between atoms: O_3  and  C_30 
REMARK    4  A    between atoms: O_4  and  C_33 
REMARK    5  A    between atoms: C_14  and  C_30 
REMARK    6  A    between atoms: C_19  and  C_33 
ROOT
ATOM      1  C   UNL d   1      18.158  15.451   4.395  0.00  0.00    -0.028 A 
ATOM      2  C   UNL d   1      17.581  14.994   3.718  0.00  0.00     0.007 A 
ATOM      3  C   UNL d   1      16.556  15.175   3.680  0.00  0.00    -0.033 A 
ATOM      4  C   UNL d   1      19.141  15.268   4.420  0.00  0.00    -0.013 A 
ATOM      5  C   UNL d   1      16.127  15.841   4.356  0.00  0.00     0.007 A 
ATOM      6  C   UNL d   1      17.750  16.120   5.081  0.00  0.00     0.011 A 
ATOM      7  C   UNL d   1      19.547  14.627   3.768  0.00  0.00    -0.069 A 
ATOM      8  C   UNL d   1      16.728  16.317   5.061  0.00  0.00     0.007 A 
ATOM      9  C   UNL d   1      15.061  16.045   4.336  0.00  0.00     0.010 A 
ATOM     10  C   UNL d   1      20.569  14.426   3.781  0.00  0.00     0.038 A 
ATOM     11  C   UNL d   1      17.987  14.354   3.066  0.00  0.00     0.033 A 
ATOM     12  C   UNL d   1      15.950  14.668   2.937  0.00  0.00     0.044 A 
ATOM     13  C   UNL d   1      19.729  15.752   5.131  0.00  0.00     0.016 A 
ATOM     14  C   UNL d   1      21.176  14.898   4.483  0.00  0.00     0.053 A 
ATOM     15  C   UNL d   1      18.427  16.043   5.155  0.00  0.00     0.016 C 
ATOM     16  C   UNL d   1      20.753  15.565   5.163  0.00  0.00     0.022 A 
ATOM     17  C   UNL d   1      14.435  15.550   3.602  0.00  0.00     0.157 A 
ATOM     18  C   UNL d   1      18.970  14.171   3.091  0.00  0.00    -0.022 A 
ATOM     19  C   UNL d   1      14.882  14.856   2.897  0.00  0.00     0.148 A 
ATOM     20  C   UNL d   1      16.969  14.536   3.031  0.00  0.00     0.016 C 
ATOM     21  C   UNL d   1      19.068  15.924   5.172  0.00  0.00     0.021 C 
ATOM     22  C   UNL d   1      20.986  13.728   3.064  0.00  0.00    -0.005 A 
ATOM     23  C   UNL d   1      22.243  14.705   4.517  0.00  0.00     0.021 A 
ATOM     24  C   UNL d   1      22.050  13.518   3.078  0.00  0.00    -0.014 A 
ATOM     25  C   UNL d   1      15.164  16.678   5.103  0.00  0.00     0.020 C 
ATOM     26  C   UNL d   1      22.683  14.010   3.809  0.00  0.00     0.006 A 
ATOM     27  C   UNL d   1      20.393  13.280   2.393  0.00  0.00     0.011 C 
ATOM     28  C   UNL d   1      22.445  12.876   2.421  0.00  0.00     0.010 C 
ENDROOT
BRANCH   9  29
ATOM     29  C   UNL d   1      14.262  16.523   4.701  0.00  0.00     0.176 C 
BRANCH  29  30
ATOM     30  O   UNL d   1      14.370  17.185   5.442  0.00  0.00    -0.400 OA
ATOM     31  H   UNL d   1      14.251  17.785   5.342  0.00  0.00     0.209 HD
ENDBRANCH  29  30
ENDBRANCH   9  29
BRANCH  17  32
ATOM     32  O   UNL d   1      13.452  15.730   3.574  0.00  0.00    -0.392 OA
ATOM     33  H   UNL d   1      13.049  15.270   3.674  0.00  0.00     0.210 HD
ENDBRANCH  17  32
BRANCH  19  34
ATOM     34  O   UNL d   1      14.315  14.394   2.216  0.00  0.00    -0.393 OA
ATOM     35  H   UNL d   1      13.903  14.717   1.885  0.00  0.00     0.210 HD
ENDBRANCH  19  34
BRANCH  14  36
ATOM     36  C   UNL d   1      21.760  15.351   5.157  0.00  0.00     0.149 C 
ATOM     37  O   UNL d   1      21.886  14.944   6.062  0.00  0.00    -0.649 OA
BRANCH  36  38
ATOM     38  O   UNL d   1      22.216  16.210   4.927  0.00  0.00    -0.776 OA
ATOM     39  H   UNL d   1      22.094  16.723   5.253  0.00  0.00     0.167 HD
ENDBRANCH  36  38
ENDBRANCH  14  36
TORSDOF 6
ENDMDL
MODEL 2
REMARK VINA RESULT:   -12.157      1.017      5.770
REMARK INTER + INTRA:         -13.631
REMARK INTER:                 -14.978
REMARK INTRA:                   1.346
REMARK UNBOUND:                 1.369
REMARK  6 active torsions:
REMARK  status: ('A' for Active; 'I' for Inactive)
REMARK    1  A    between atoms: C_22  and  O_1 
REMARK    2  A    between atoms: C_24  and  O_2 
REMARK    3  A    between atoms: O_3  and  C_30 
REMARK    4  A    between atoms: O_4  and  C_33 
REMARK    5  A    between atoms: C_14  and  C_30 
REMARK    6  A    between atoms: C_19  and  C_33 
ROOT
ATOM      1  C   UNL d   1      18.331  15.401   4.339  0.00  0.00    -0.028 A 
ATOM      2  C   UNL d   1      18.786  14.763   3.718  0.00  0.00     0.007 A 
ATOM      3  C   UNL d   1      19.821  14.645   3.737  0.00  0.00    -0.033 A 
ATOM      4  C   UNL d   1      17.337  15.504   4.309  0.00  0.00    -0.013 A 
ATOM      5  C   UNL d   1      20.389  15.199   4.411  0.00  0.00     0.007 A 
ATOM      6  C   UNL d   1      18.879  15.965   5.021  0.00  0.00     0.011 A 
ATOM      7  C   UNL d   1      16.798  14.969   3.658  0.00  0.00    -0.069 A 
ATOM      8  C   UNL d   1      19.915  15.863   5.058  0.00  0.00     0.007 A 
ATOM      9  C   UNL d   1      21.469  15.092   4.450  0.00  0.00     0.010 A 
ATOM     10  C   UNL d   1      15.761  15.065   3.616  0.00  0.00     0.038 A 
ATOM     11  C   UNL d   1      18.247  14.228   3.067  0.00  0.00     0.033 A 
ATOM     12  C   UNL d   1      20.293  13.946   3.054  0.00  0.00     0.044 A 
ATOM     13  C   UNL d   1      16.877  16.173   4.962  0.00  0.00     0.016 A 
ATOM     14  C   UNL d   1      15.280  15.728   4.259  0.00  0.00     0.053 A 
ATOM     15  C   UNL d   1      18.206  16.086   5.056  0.00  0.00     0.016 C 
ATOM     16  C   UNL d   1      15.842  16.285   4.937  0.00  0.00     0.022 A 
ATOM     17  C   UNL d   1      21.962  14.401   3.777  0.00  0.00     0.157 A 
ATOM     18  C   UNL d   1      17.253  14.331   3.038  0.00  0.00    -0.022 A 
ATOM     19  C   UNL d   1      21.371  13.823   3.074  0.00  0.00     0.148 A 
ATOM     20  C   UNL d   1      19.276  14.113   3.089  0.00  0.00     0.016 C 
ATOM     21  C   UNL d   1      17.557  16.153   5.037  0.00  0.00     0.021 C 
ATOM     22  C   UNL d   1      15.198  14.474   2.902  0.00  0.00    -0.005 A 
ATOM     23  C   UNL d   1      14.202  15.845   4.233  0.00  0.00     0.021 A 
ATOM     24  C   UNL d   1      14.119  14.574   2.857  0.00  0.00    -0.014 A 
ATOM     25  C   UNL d   1      21.512  15.770   5.184  0.00  0.00     0.020 C 
ATOM     26  C   UNL d   1      13.617  15.264   3.528  0.00  0.00     0.006 A 
ATOM     27  C   UNL d   1      15.670  13.840   2.288  0.00  0.00     0.011 C 
ATOM     28  C   UNL d   1      13.590  14.034   2.203  0.00  0.00     0.010 C 
ENDROOT
BRANCH   9  29
ATOM     29  C   UNL d   1      22.351  15.345   4.845  0.00  0.00     0.176 C 
BRANCH  29  30
ATOM     30  O   UNL d   1      22.557  16.303   5.040  0.00  0.00    -0.400 OA
ATOM     31  H   UNL d   1      22.843  16.458   5.568  0.00  0.00     0.209 HD
ENDBRANCH  29  30
ENDBRANCH   9  29
BRANCH  17  32
ATOM     32  O   UNL d   1      22.956  14.295   3.803  0.00  0.00    -0.392 OA
ATOM     33  H   UNL d   1      23.239  13.919   3.399  0.00  0.00     0.210 HD
ENDBRANCH  17  32
BRANCH  19  34
ATOM     34  O   UNL d   1      21.816  13.182   2.448  0.00  0.00    -0.393 OA
ATOM     35  H   UNL d   1      21.504  12.956   1.963  0.00  0.00     0.210 HD
ENDBRANCH  19  34
BRANCH  14  36
ATOM     36  C   UNL d   1      14.818  16.364   4.877  0.00  0.00     0.149 C 
ATOM     37  O   UNL d   1      14.660  17.310   4.593  0.00  0.00    -0.649 OA
BRANCH  36  38
ATOM     38  O   UNL d   1      14.513  16.055   5.777  0.00  0.00    -0.776 OA
ATOM     39  H   UNL d   1      14.288  16.463   6.185  0.00  0.00     0.167 HD
ENDBRANCH  36  38
ENDBRANCH  14  36
TORSDOF 6
ENDMDL
MODEL 3
REMARK VINA RESULT:   -12.138      2.829      5.133
REMARK INTER + INTRA:         -13.608
REMARK INTER:                 -14.988
REMARK INTRA:                   1.380
REMARK UNBOUND:                 1.369
REMARK  6 active torsions:
REMARK  status: ('A' for Active; 'I' for Inactive)
REMARK    1  A    between atoms: C_22  and  O_1 
REMARK    2  A    between atoms: C_24  and  O_2 
REMARK    3  A    between atoms: O_3  and  C_30 
REMARK    4  A    between atoms: O_4  and  C_33 
REMARK    5  A    between atoms: C_14  and  C_30 
REMARK    6  A    between atoms: C_19  and  C_33 
ROOT
ATOM      1  C   UNL d   1      21.597  14.160   2.926  0.00  0.00    -0.028 A 
ATOM      2  C   UNL d   1      20.812  14.776   2.994  0.00  0.00     0.007 A 
ATOM      3  C   UNL d   1      20.509  15.156   3.916  0.00  0.00    -0.033 A 
ATOM      4  C   UNL d   1      21.876  13.804   2.034  0.00  0.00    -0.013 A 
ATOM      5  C   UNL d   1      21.029  14.889   4.777  0.00  0.00     0.007 A 
ATOM      6  C   UNL d   1      22.132  13.880   3.774  0.00  0.00     0.011 A 
ATOM      7  C   UNL d   1      21.372  14.064   1.211  0.00  0.00    -0.069 A 
ATOM      8  C   UNL d   1      21.846  14.247   4.706  0.00  0.00     0.007 A 
ATOM      9  C   UNL d   1      20.732  15.272   5.749  0.00  0.00     0.010 A 
ATOM     10  C   UNL d   1      21.651  13.701   0.275  0.00  0.00     0.038 A 
ATOM     11  C   UNL d   1      20.308  15.037   2.171  0.00  0.00     0.033 A 
ATOM     12  C   UNL d   1      19.655  15.823   3.965  0.00  0.00     0.044 A 
ATOM     13  C   UNL d   1      22.696  13.162   1.979  0.00  0.00     0.016 A 
ATOM     14  C   UNL d   1      22.467  13.059   0.196  0.00  0.00     0.053 A 
ATOM     15  C   UNL d   1      22.378  13.599   3.200  0.00  0.00     0.016 C 
ATOM     16  C   UNL d   1      22.993  12.787   1.054  0.00  0.00     0.022 A 
ATOM     17  C   UNL d   1      19.881  15.940   5.823  0.00  0.00     0.157 A 
ATOM     18  C   UNL d   1      20.588  14.681   1.279  0.00  0.00    -0.022 A 
ATOM     19  C   UNL d   1      19.339  16.218   4.925  0.00  0.00     0.148 A 
ATOM     20  C   UNL d   1      20.009  15.411   3.088  0.00  0.00     0.016 C 
ATOM     21  C   UNL d   1      22.561  13.367   2.618  0.00  0.00     0.021 C 
ATOM     22  C   UNL d   1      21.089  13.998  -0.603  0.00  0.00    -0.005 A 
ATOM     23  C   UNL d   1      22.777  12.668  -0.767  0.00  0.00     0.021 A 
ATOM     24  C   UNL d   1      21.380  13.620  -1.578  0.00  0.00    -0.014 A 
ATOM     25  C   UNL d   1      21.477  14.764   6.180  0.00  0.00     0.020 C 
ATOM     26  C   UNL d   1      22.230  12.950  -1.661  0.00  0.00     0.006 A 
ATOM     27  C   UNL d   1      20.306  14.616  -0.516  0.00  0.00     0.011 C 
ATOM     28  C   UNL d   1      20.868  13.887  -2.394  0.00  0.00     0.010 C 
ENDROOT
BRANCH   9  29
ATOM     29  C   UNL d   1      20.865  15.324   6.738  0.00  0.00     0.176 C 
BRANCH  29  30
ATOM     30  O   UNL d   1      21.789  15.317   7.120  0.00  0.00    -0.400 OA
ATOM     31  H   UNL d   1      22.182  15.779   6.990  0.00  0.00     0.209 HD
ENDBRANCH  29  30
ENDBRANCH   9  29
BRANCH  17  32
ATOM     32  O   UNL d   1      19.598  16.298   6.712  0.00  0.00    -0.392 OA
ATOM     33  H   UNL d   1      19.614  15.933   7.213  0.00  0.00     0.210 HD
ENDBRANCH  17  32
BRANCH  19  34
ATOM     34  O   UNL d   1      18.553  16.834   4.982  0.00  0.00    -0.393 OA
ATOM     35  H   UNL d   1      17.995  16.643   4.792  0.00  0.00     0.210 HD
ENDBRANCH  19  34
BRANCH  14  36
ATOM     36  C   UNL d   1      23.250  12.442   0.120  0.00  0.00     0.149 C 
ATOM     37  O   UNL d   1      23.103  11.455   0.046  0.00  0.00    -0.649 OA
BRANCH  36  38
ATOM     38  O   UNL d   1      24.179  12.810   0.118  0.00  0.00    -0.776 OA
ATOM     39  H   UNL d   1      24.561  12.686  -0.355  0.00  0.00     0.167 HD
ENDBRANCH  36  38
ENDBRANCH  14  36
TORSDOF 6
ENDMDL
MODEL 4
REMARK VINA RESULT:   -12.119     31.992     35.382
REMARK INTER + INTRA:         -13.584
REMARK INTER:                 -14.894
REMARK INTRA:                   1.310
REMARK UNBOUND:                 1.369
REMARK  6 active torsions:
REMARK  status: ('A' for Active; 'I' for Inactive)
REMARK    1  A    between atoms: C_22  and  O_1 
REMARK    2  A    between atoms: C_24  and  O_2 
REMARK    3  A    between atoms: O_3  and  C_30 
REMARK    4  A    between atoms: O_4  and  C_33 
REMARK    5  A    between atoms: C_14  and  C_30 
REMARK    6  A    between atoms: C_19  and  C_33 
ROOT
ATOM      1  C   UNL d   1      -6.153  19.031  29.763  0.00  0.00    -0.028 A 
ATOM      2  C   UNL d   1      -5.987  19.907  29.311  0.00  0.00     0.007 A 
ATOM      3  C   UNL d   1      -6.415  20.785  29.673  0.00  0.00    -0.033 A 
ATOM      4  C   UNL d   1      -5.736  18.196  29.405  0.00  0.00    -0.013 A 
ATOM      5  C   UNL d   1      -7.023  20.750  30.517  0.00  0.00     0.007 A 
ATOM      6  C   UNL d   1      -6.758  18.972  30.609  0.00  0.00     0.011 A 
ATOM      7  C   UNL d   1      -5.152  18.237  28.593  0.00  0.00    -0.069 A 
ATOM      8  C   UNL d   1      -7.196  19.838  30.988  0.00  0.00     0.007 A 
ATOM      9  C   UNL d   1      -7.480  21.652  30.912  0.00  0.00     0.010 A 
ATOM     10  C   UNL d   1      -4.711  17.376  28.208  0.00  0.00     0.038 A 
ATOM     11  C   UNL d   1      -5.404  19.948  28.500  0.00  0.00     0.033 A 
ATOM     12  C   UNL d   1      -6.220  21.724  29.165  0.00  0.00     0.044 A 
ATOM     13  C   UNL d   1      -5.918  17.291  29.887  0.00  0.00     0.016 A 
ATOM     14  C   UNL d   1      -4.879  16.460  28.674  0.00  0.00     0.053 A 
ATOM     15  C   UNL d   1      -6.507  18.364  30.419  0.00  0.00     0.016 C 
ATOM     16  C   UNL d   1      -5.487  16.417  29.519  0.00  0.00     0.022 A 
ATOM     17  C   UNL d   1      -7.300  22.602  30.422  0.00  0.00     0.157 A 
ATOM     18  C   UNL d   1      -4.986  19.113  28.141  0.00  0.00    -0.022 A 
ATOM     19  C   UNL d   1      -6.666  22.639  29.542  0.00  0.00     0.148 A 
ATOM     20  C   UNL d   1      -5.830  20.819  28.862  0.00  0.00     0.016 C 
ATOM     21  C   UNL d   1      -6.234  17.819  30.186  0.00  0.00     0.021 C 
ATOM     22  C   UNL d   1      -4.082  17.445  27.327  0.00  0.00    -0.005 A 
ATOM     23  C   UNL d   1      -4.430  15.549  28.291  0.00  0.00     0.021 A 
ATOM     24  C   UNL d   1      -3.622  16.549  26.926  0.00  0.00    -0.014 A 
ATOM     25  C   UNL d   1      -7.911  21.119  31.640  0.00  0.00     0.020 C 
ATOM     26  C   UNL d   1      -3.797  15.594  27.411  0.00  0.00     0.006 A 
ATOM     27  C   UNL d   1      -3.927  18.331  26.887  0.00  0.00     0.011 C 
ATOM     28  C   UNL d   1      -3.040  16.602  26.114  0.00  0.00     0.010 C 
ENDROOT
BRANCH   9  29
ATOM     29  C   UNL d   1      -8.058  22.106  31.590  0.00  0.00     0.176 C 
BRANCH  29  30
ATOM     30  O   UNL d   1      -8.754  21.586  32.083  0.00  0.00    -0.400 OA
ATOM     31  H   UNL d   1      -9.353  21.739  32.030  0.00  0.00     0.209 HD
ENDBRANCH  29  30
ENDBRANCH   9  29
BRANCH  17  32
ATOM     32  O   UNL d   1      -7.715  23.439  30.777  0.00  0.00    -0.392 OA
ATOM     33  H   UNL d   1      -7.916  23.877  30.386  0.00  0.00     0.210 HD
ENDBRANCH  17  32
BRANCH  19  34
ATOM     34  O   UNL d   1      -6.493  23.510  29.082  0.00  0.00    -0.393 OA
ATOM     35  H   UNL d   1      -6.146  23.943  29.358  0.00  0.00     0.210 HD
ENDBRANCH  19  34
BRANCH  14  36
ATOM     36  C   UNL d   1      -5.040  15.580  29.121  0.00  0.00     0.149 C 
ATOM     37  O   UNL d   1      -4.419  15.263  29.837  0.00  0.00    -0.649 OA
BRANCH  36  38
ATOM     38  O   UNL d   1      -5.822  15.018  28.852  0.00  0.00    -0.776 OA
ATOM     39  H   UNL d   1      -6.173  15.186  28.370  0.00  0.00     0.167 HD
ENDBRANCH  36  38
ENDBRANCH  14  36
TORSDOF 6
ENDMDL
MODEL 5
REMARK VINA RESULT:   -11.946     31.657     35.294
REMARK INTER + INTRA:         -13.371
REMARK INTER:                 -14.678
REMARK INTRA:                   1.307
REMARK UNBOUND:                 1.369
REMARK  6 active torsions:
REMARK  status: ('A' for Active; 'I' for Inactive)
REMARK    1  A    between atoms: C_22  and  O_1 
REMARK    2  A    between atoms: C_24  and  O_2 
REMARK    3  A    between atoms: O_3  and  C_30 
REMARK    4  A    between atoms: O_4  and  C_33 
REMARK    5  A    between atoms: C_14  and  C_30 
REMARK    6  A    between atoms: C_19  and  C_33 
ROOT
ATOM      1  C   UNL d   1      -5.495  18.827  28.570  0.00  0.00    -0.028 A 
ATOM      2  C   UNL d   1      -5.756  17.924  28.912  0.00  0.00     0.007 A 
ATOM      3  C   UNL d   1      -5.460  17.058  28.415  0.00  0.00    -0.033 A 
ATOM      4  C   UNL d   1      -5.787  19.650  29.058  0.00  0.00    -0.013 A 
ATOM      5  C   UNL d   1      -4.884  17.133  27.551  0.00  0.00     0.007 A 
ATOM      6  C   UNL d   1      -4.919  18.926  27.708  0.00  0.00     0.011 A 
ATOM      7  C   UNL d   1      -6.340  19.570  29.887  0.00  0.00    -0.069 A 
ATOM      8  C   UNL d   1      -4.612  18.073  27.195  0.00  0.00     0.007 A 
ATOM      9  C   UNL d   1      -4.563  16.244  27.016  0.00  0.00     0.010 A 
ATOM     10  C   UNL d   1      -6.651  20.418  30.406  0.00  0.00     0.038 A 
ATOM     11  C   UNL d   1      -6.309  17.844  29.741  0.00  0.00     0.033 A 
ATOM     12  C   UNL d   1      -5.755  16.089  28.805  0.00  0.00     0.044 A 
ATOM     13  C   UNL d   1      -5.506  20.583  28.689  0.00  0.00     0.016 A 
ATOM     14  C   UNL d   1      -6.383  21.362  30.056  0.00  0.00     0.053 A 
ATOM     15  C   UNL d   1      -5.083  19.528  27.989  0.00  0.00     0.016 C 
ATOM     16  C   UNL d   1      -5.807  21.445  29.191  0.00  0.00     0.022 A 
ATOM     17  C   UNL d   1      -4.846  15.265  27.387  0.00  0.00     0.157 A 
ATOM     18  C   UNL d   1      -6.601  18.667  30.229  0.00  0.00    -0.022 A 
ATOM     19  C   UNL d   1      -5.446  15.187  28.288  0.00  0.00     0.148 A 
ATOM     20  C   UNL d   1      -6.013  16.986  29.245  0.00  0.00     0.016 C 
ATOM     21  C   UNL d   1      -5.273  20.065  28.307  0.00  0.00     0.021 C 
ATOM     22  C   UNL d   1      -7.250  20.307  31.303  0.00  0.00    -0.005 A 
ATOM     23  C   UNL d   1      -6.695  22.259  30.579  0.00  0.00     0.021 A 
ATOM     24  C   UNL d   1      -7.575  21.190  31.843  0.00  0.00    -0.014 A 
ATOM     25  C   UNL d   1      -4.094  16.815  26.342  0.00  0.00     0.020 C 
ATOM     26  C   UNL d   1      -7.295  22.173  31.478  0.00  0.00     0.006 A 
ATOM     27  C   UNL d   1      -7.502  19.395  31.630  0.00  0.00     0.011 C 
ATOM     28  C   UNL d   1      -8.128  21.098  32.671  0.00  0.00     0.010 C 
ENDROOT
BRANCH   9  29
ATOM     29  C   UNL d   1      -4.074  15.819  26.255  0.00  0.00     0.176 C 
BRANCH  29  30
ATOM     30  O   UNL d   1      -3.331  16.310  25.801  0.00  0.00    -0.400 OA
ATOM     31  H   UNL d   1      -2.987  16.715  26.120  0.00  0.00     0.209 HD
ENDBRANCH  29  30
ENDBRANCH   9  29
BRANCH  17  32
ATOM     32  O   UNL d   1      -4.557  14.440  26.903  0.00  0.00    -0.392 OA
ATOM     33  H   UNL d   1      -4.071  14.114  27.108  0.00  0.00     0.210 HD
ENDBRANCH  17  32
BRANCH  19  34
ATOM     34  O   UNL d   1      -5.713  14.289  28.638  0.00  0.00    -0.393 OA
ATOM     35  H   UNL d   1      -6.309  14.117  28.628  0.00  0.00     0.210 HD
ENDBRANCH  19  34
BRANCH  14  36
ATOM     36  C   UNL d   1      -6.126  22.268  29.720  0.00  0.00     0.149 C 
ATOM     37  O   UNL d   1      -5.265  22.683  30.014  0.00  0.00    -0.649 OA
BRANCH  36  38
ATOM     38  O   UNL d   1      -6.728  22.758  29.090  0.00  0.00    -0.776 OA
ATOM     39  H   UNL d   1      -7.029  23.265  29.281  0.00  0.00     0.167 HD
ENDBRANCH  36  38
ENDBRANCH  14  36
TORSDOF 6
ENDMDL
