MODEL 1
REMARK VINA RESULT:    -8.799      0.000      0.000
REMARK INTER + INTRA:          -8.817
REMARK INTER:                  -9.970
REMARK INTRA:                   1.153
REMARK UNBOUND:                 1.011
REMARK  3 active torsions:
REMARK  status: ('A' for Active; 'I' for Inactive)
REMARK    1  A    between atoms: O_2  and  C_10 
REMARK    2  A    between atoms: O_4  and  C_13 
REMARK    3  A    between atoms: C_7  and  C_9 
ROOT
ATOM      1  O   UNL d   1      11.905   5.353   1.292  0.00  0.00    -0.309 OA
ATOM      2  O   UNL d   1      10.576   2.677   1.557  0.00  0.00    -0.287 OA
ATOM      3  C   UNL d   1      10.701   4.342   2.018  0.00  0.00     0.081 A 
ATOM      4  C   UNL d   1      11.144   5.234   1.930  0.00  0.00     0.095 A 
ATOM      5  C   UNL d   1      12.222   4.581   0.742  0.00  0.00     0.090 A 
ATOM      6  C   UNL d   1      11.019   3.569   1.469  0.00  0.00     0.190 A 
ATOM      7  C   UNL d   1       9.908   4.203   2.678  0.00  0.00     0.085 A 
ATOM      8  C   UNL d   1      11.779   3.689   0.831  0.00  0.00     0.094 A 
ATOM      9  C   UNL d   1      10.824   6.048   2.495  0.00  0.00     0.075 A 
ATOM     10  C   UNL d   1      10.033   5.932   3.162  0.00  0.00     0.071 A 
ATOM     11  C   UNL d   1       9.571   5.003   3.254  0.00  0.00     0.074 A 
ENDROOT
BRANCH   5  12
ATOM     12  C   UNL d   1      12.983   4.700   0.104  0.00  0.00    -0.002 A 
ATOM     13  C   UNL d   1      12.965   5.446  -0.561  0.00  0.00     0.014 A 
ATOM     14  C   UNL d   1      13.726   5.566  -1.199  0.00  0.00     0.001 A 
ATOM     15  C   UNL d   1      14.505   4.939  -1.172  0.00  0.00     0.000 A 
ATOM     16  C   UNL d   1      14.522   4.193  -0.506  0.00  0.00     0.001 A 
ATOM     17  C   UNL d   1      13.762   4.073   0.132  0.00  0.00     0.014 A 
ENDBRANCH   5  12
BRANCH   7  18
ATOM     18  O   UNL d   1       9.472   3.306   2.758  0.00  0.00    -0.360 OA
ATOM     19  H   UNL d   1       9.050   3.129   2.341  0.00  0.00     0.217 HD
ENDBRANCH   7  18
BRANCH  10  20
ATOM     20  O   UNL d   1       9.718   6.707   3.710  0.00  0.00    -0.361 OA
ATOM     21  H   UNL d   1      10.129   7.110   3.941  0.00  0.00     0.217 HD
ENDBRANCH  10  20
TORSDOF 3
ENDMDL
MODEL 2
REMARK VINA RESULT:    -8.453     18.278     19.970
REMARK INTER + INTRA:          -8.431
REMARK INTER:                  -9.439
REMARK INTRA:                   1.009
REMARK UNBOUND:                 1.011
REMARK  3 active torsions:
REMARK  status: ('A' for Active; 'I' for Inactive)
REMARK    1  A    between atoms: O_2  and  C_10 
REMARK    2  A    between atoms: O_4  and  C_13 
REMARK    3  A    between atoms: C_7  and  C_9 
ROOT
ATOM      1  O   UNL d   1      15.886   2.236 -17.034  0.00  0.00    -0.309 OA
ATOM      2  O   UNL d   1      17.802   1.659 -19.269  0.00  0.00    -0.287 OA
ATOM      3  C   UNL d   1      16.802   2.776 -18.401  0.00  0.00     0.081 A 
ATOM      4  C   UNL d   1      16.164   2.968 -17.656  0.00  0.00     0.095 A 
ATOM      5  C   UNL d   1      16.247   1.312 -17.157  0.00  0.00     0.090 A 
ATOM      6  C   UNL d   1      17.164   1.852 -18.524  0.00  0.00     0.190 A 
ATOM      7  C   UNL d   1      17.101   3.528 -19.057  0.00  0.00     0.085 A 
ATOM      8  C   UNL d   1      16.886   1.120 -17.902  0.00  0.00     0.094 A 
ATOM      9  C   UNL d   1      15.779   3.926 -17.515  0.00  0.00     0.075 A 
ATOM     10  C   UNL d   1      16.064   4.694 -18.159  0.00  0.00     0.071 A 
ATOM     11  C   UNL d   1      16.729   4.494 -18.935  0.00  0.00     0.074 A 
ENDROOT
BRANCH   5  12
ATOM     12  C   UNL d   1      15.969   0.580 -16.535  0.00  0.00    -0.002 A 
ATOM     13  C   UNL d   1      16.567   0.312 -15.780  0.00  0.00     0.014 A 
ATOM     14  C   UNL d   1      16.289  -0.420 -15.158  0.00  0.00     0.001 A 
ATOM     15  C   UNL d   1      15.414  -0.884 -15.291  0.00  0.00     0.000 A 
ATOM     16  C   UNL d   1      14.816  -0.616 -16.047  0.00  0.00     0.001 A 
ATOM     17  C   UNL d   1      15.094   0.116 -16.669  0.00  0.00     0.014 A 
ENDBRANCH   5  12
BRANCH   7  18
ATOM     18  O   UNL d   1      17.740   3.325 -19.798  0.00  0.00    -0.360 OA
ATOM     19  H   UNL d   1      17.997   3.787 -20.121  0.00  0.00     0.217 HD
ENDBRANCH   7  18
BRANCH  10  20
ATOM     20  O   UNL d   1      15.700   5.617 -18.033  0.00  0.00    -0.361 OA
ATOM     21  H   UNL d   1      15.097   5.699 -17.917  0.00  0.00     0.217 HD
ENDBRANCH  10  20
TORSDOF 3
ENDMDL
MODEL 3
REMARK VINA RESULT:    -8.403     35.496     36.575
REMARK INTER + INTRA:          -8.374
REMARK INTER:                  -9.388
REMARK INTRA:                   1.015
REMARK UNBOUND:                 1.011
REMARK  3 active torsions:
REMARK  status: ('A' for Active; 'I' for Inactive)
REMARK    1  A    between atoms: O_2  and  C_10 
REMARK    2  A    between atoms: O_4  and  C_13 
REMARK    3  A    between atoms: C_7  and  C_9 
ROOT
ATOM      1  O   UNL d   1      35.119  30.669  13.231  0.00  0.00    -0.309 OA
ATOM      2  O   UNL d   1      32.638  29.066  12.704  0.00  0.00    -0.287 OA
ATOM      3  C   UNL d   1      34.250  29.522  12.266  0.00  0.00     0.081 A 
ATOM      4  C   UNL d   1      35.077  30.056  12.441  0.00  0.00     0.095 A 
ATOM      5  C   UNL d   1      34.333  30.747  13.845  0.00  0.00     0.090 A 
ATOM      6  C   UNL d   1      33.465  29.600  12.880  0.00  0.00     0.190 A 
ATOM      7  C   UNL d   1      34.193  28.880  11.448  0.00  0.00     0.085 A 
ATOM      8  C   UNL d   1      33.506  30.212  13.669  0.00  0.00     0.094 A 
ATOM      9  C   UNL d   1      35.904  29.986  11.811  0.00  0.00     0.075 A 
ATOM     10  C   UNL d   1      35.868  29.350  10.986  0.00  0.00     0.071 A 
ATOM     11  C   UNL d   1      35.007  28.794  10.804  0.00  0.00     0.074 A 
ENDROOT
BRANCH   5  12
ATOM     12  C   UNL d   1      34.375  31.359  14.634  0.00  0.00    -0.002 A 
ATOM     13  C   UNL d   1      34.550  30.988  15.546  0.00  0.00     0.014 A 
ATOM     14  C   UNL d   1      34.591  31.601  16.335  0.00  0.00     0.001 A 
ATOM     15  C   UNL d   1      34.458  32.584  16.213  0.00  0.00     0.000 A 
ATOM     16  C   UNL d   1      34.282  32.955  15.301  0.00  0.00     0.001 A 
ATOM     17  C   UNL d   1      34.241  32.343  14.511  0.00  0.00     0.014 A 
ENDBRANCH   5  12
BRANCH   7  18
ATOM     18  O   UNL d   1      33.361  28.351  11.282  0.00  0.00    -0.360 OA
ATOM     19  H   UNL d   1      33.104  28.346  10.718  0.00  0.00     0.217 HD
ENDBRANCH   7  18
BRANCH  10  20
ATOM     20  O   UNL d   1      36.656  29.275  10.375  0.00  0.00    -0.361 OA
ATOM     21  H   UNL d   1      36.749  28.753  10.052  0.00  0.00     0.217 HD
ENDBRANCH  10  20
TORSDOF 3
ENDMDL
MODEL 4
REMARK VINA RESULT:    -8.400     11.641     13.247
REMARK INTER + INTRA:          -8.370
REMARK INTER:                  -9.406
REMARK INTRA:                   1.036
REMARK UNBOUND:                 1.011
REMARK  3 active torsions:
REMARK  status: ('A' for Active; 'I' for Inactive)
REMARK    1  A    between atoms: O_2  and  C_10 
REMARK    2  A    between atoms: O_4  and  C_13 
REMARK    3  A    between atoms: C_7  and  C_9 
ROOT
ATOM      1  O   UNL d   1      18.969  -3.457  -5.955  0.00  0.00    -0.309 OA
ATOM      2  O   UNL d   1      16.729  -3.296  -7.943  0.00  0.00    -0.287 OA
ATOM      3  C   UNL d   1      17.277  -3.520  -6.316  0.00  0.00     0.081 A 
ATOM      4  C   UNL d   1      18.023  -3.573  -5.653  0.00  0.00     0.095 A 
ATOM      5  C   UNL d   1      19.169  -3.288  -6.920  0.00  0.00     0.090 A 
ATOM      6  C   UNL d   1      17.476  -3.350  -7.281  0.00  0.00     0.190 A 
ATOM      7  C   UNL d   1      16.286  -3.638  -6.015  0.00  0.00     0.085 A 
ATOM      8  C   UNL d   1      18.422  -3.234  -7.583  0.00  0.00     0.094 A 
ATOM      9  C   UNL d   1      17.832  -3.750  -4.644  0.00  0.00     0.075 A 
ATOM     10  C   UNL d   1      16.849  -3.871  -4.322  0.00  0.00     0.071 A 
ATOM     11  C   UNL d   1      16.071  -3.815  -5.012  0.00  0.00     0.074 A 
ENDROOT
BRANCH   5  12
ATOM     12  C   UNL d   1      20.115  -3.172  -7.222  0.00  0.00    -0.002 A 
ATOM     13  C   UNL d   1      20.449  -2.266  -7.484  0.00  0.00     0.014 A 
ATOM     14  C   UNL d   1      21.395  -2.150  -7.786  0.00  0.00     0.001 A 
ATOM     15  C   UNL d   1      22.007  -2.940  -7.827  0.00  0.00     0.000 A 
ATOM     16  C   UNL d   1      21.673  -3.845  -7.565  0.00  0.00     0.001 A 
ATOM     17  C   UNL d   1      20.727  -3.961  -7.263  0.00  0.00     0.014 A 
ENDBRANCH   5  12
BRANCH   7  18
ATOM     18  O   UNL d   1      15.548  -3.583  -6.687  0.00  0.00    -0.360 OA
ATOM     19  H   UNL d   1      15.592  -3.892  -7.222  0.00  0.00     0.217 HD
ENDBRANCH   7  18
BRANCH  10  20
ATOM     20  O   UNL d   1      16.654  -4.041  -3.355  0.00  0.00    -0.361 OA
ATOM     21  H   UNL d   1      16.892  -3.668  -2.921  0.00  0.00     0.217 HD
ENDBRANCH  10  20
TORSDOF 3
ENDMDL
MODEL 5
REMARK VINA RESULT:    -8.358     20.143     20.671
REMARK INTER + INTRA:          -8.324
REMARK INTER:                  -9.327
REMARK INTRA:                   1.002
REMARK UNBOUND:                 1.011
REMARK  3 active torsions:
REMARK  status: ('A' for Active; 'I' for Inactive)
REMARK    1  A    between atoms: O_2  and  C_10 
REMARK    2  A    between atoms: O_4  and  C_13 
REMARK    3  A    between atoms: C_7  and  C_9 
ROOT
ATOM      1  O   UNL d   1      18.805   2.545 -17.797  0.00  0.00    -0.309 OA
ATOM      2  O   UNL d   1      15.903   2.598 -18.555  0.00  0.00    -0.287 OA
ATOM      3  C   UNL d   1      17.380   3.436 -18.216  0.00  0.00     0.081 A 
ATOM      4  C   UNL d   1      18.347   3.418 -17.963  0.00  0.00     0.095 A 
ATOM      5  C   UNL d   1      18.295   1.689 -17.884  0.00  0.00     0.090 A 
ATOM      6  C   UNL d   1      16.870   2.580 -18.302  0.00  0.00     0.190 A 
ATOM      7  C   UNL d   1      16.890   4.338 -18.391  0.00  0.00     0.085 A 
ATOM      8  C   UNL d   1      17.327   1.707 -18.136  0.00  0.00     0.094 A 
ATOM      9  C   UNL d   1      18.892   4.301 -17.869  0.00  0.00     0.075 A 
ATOM     10  C   UNL d   1      18.422   5.215 -18.040  0.00  0.00     0.071 A 
ATOM     11  C   UNL d   1      17.415   5.234 -18.303  0.00  0.00     0.074 A 
ENDROOT
BRANCH   5  12
ATOM     12  C   UNL d   1      18.752   0.815 -17.718  0.00  0.00    -0.002 A 
ATOM     13  C   UNL d   1      19.267   0.373 -18.453  0.00  0.00     0.014 A 
ATOM     14  C   UNL d   1      19.724  -0.501 -18.287  0.00  0.00     0.001 A 
ATOM     15  C   UNL d   1      19.668  -0.932 -17.387  0.00  0.00     0.000 A 
ATOM     16  C   UNL d   1      19.153  -0.489 -16.652  0.00  0.00     0.001 A 
ATOM     17  C   UNL d   1      18.696   0.384 -16.818  0.00  0.00     0.014 A 
ENDBRANCH   5  12
BRANCH   7  18
ATOM     18  O   UNL d   1      15.923   4.344 -18.643  0.00  0.00    -0.360 OA
ATOM     19  H   UNL d   1      15.655   4.870 -18.833  0.00  0.00     0.217 HD
ENDBRANCH   7  18
BRANCH  10  20
ATOM     20  O   UNL d   1      18.936   6.069 -17.952  0.00  0.00    -0.361 OA
ATOM     21  H   UNL d   1      19.481   6.073 -17.657  0.00  0.00     0.217 HD
ENDBRANCH  10  20
TORSDOF 3
ENDMDL
