MODEL 1
REMARK VINA RESULT:    -9.000      0.000      0.000
REMARK INTER + INTRA:          -8.776
REMARK INTER:                 -10.610
REMARK INTRA:                   1.834
REMARK UNBOUND:                 2.066
REMARK  5 active torsions:
REMARK  status: ('A' for Active; 'I' for Inactive)
REMARK    1  A    between atoms: O_2  and  C_13 
REMARK    2  A    between atoms: O_3  and  C_19 
REMARK    3  A    between atoms: O_5  and  C_17 
REMARK    4  A    between atoms: O_6  and  C_21 
REMARK    5  A    between atoms: C_8  and  C_10 
ROOT
ATOM      1  O   UNL d   1      34.425  15.616 -18.735  0.00  0.00    -0.309 OA
ATOM      2  O   UNL d   1      33.107  14.313 -16.377  0.00  0.00    -0.287 OA
ATOM      3  C   UNL d   1      34.069  15.591 -17.040  0.00  0.00     0.081 A 
ATOM      4  C   UNL d   1      33.902  14.773 -18.858  0.00  0.00     0.090 A 
ATOM      5  C   UNL d   1      34.509  16.025 -17.826  0.00  0.00     0.095 A 
ATOM      6  C   UNL d   1      33.546  14.747 -17.163  0.00  0.00     0.190 A 
ATOM      7  C   UNL d   1      33.462  14.338 -18.071  0.00  0.00     0.094 A 
ATOM      8  C   UNL d   1      34.148  16.005 -16.088  0.00  0.00     0.085 A 
ATOM      9  C   UNL d   1      35.057  16.904 -17.714  0.00  0.00     0.075 A 
ATOM     10  C   UNL d   1      35.148  17.336 -16.771  0.00  0.00     0.071 A 
ATOM     11  C   UNL d   1      34.691  16.883 -15.952  0.00  0.00     0.074 A 
ENDROOT
BRANCH   4  12
ATOM     12  C   UNL d   1      33.818  14.364 -19.766  0.00  0.00     0.001 A 
ATOM     13  C   UNL d   1      33.001  14.532 -20.317  0.00  0.00     0.054 A 
ATOM     14  C   UNL d   1      32.917  14.123 -21.226  0.00  0.00     0.102 A 
ATOM     15  C   UNL d   1      33.651  13.547 -21.584  0.00  0.00     0.099 A 
ATOM     16  C   UNL d   1      34.469  13.379 -21.033  0.00  0.00     0.040 A 
ATOM     17  C   UNL d   1      34.553  13.788 -20.125  0.00  0.00     0.017 A 
BRANCH  14  18
ATOM     18  O   UNL d   1      32.099  14.291 -21.776  0.00  0.00    -0.353 OA
ATOM     19  C   UNL d   1      31.497  15.058 -21.555  0.00  0.00     0.210 C 
ENDBRANCH  14  18
BRANCH  15  20
ATOM     20  O   UNL d   1      33.568  13.138 -22.493  0.00  0.00    -0.358 OA
ATOM     21  H   UNL d   1      33.107  12.741 -22.613  0.00  0.00     0.217 HD
ENDBRANCH  15  20
ENDBRANCH   4  12
BRANCH   8  22
ATOM     22  O   UNL d   1      33.704  15.562 -15.309  0.00  0.00    -0.360 OA
ATOM     23  H   UNL d   1      34.047  15.301 -14.864  0.00  0.00     0.217 HD
ENDBRANCH   8  22
BRANCH  10  24
ATOM     24  O   UNL d   1      35.673  18.179 -16.652  0.00  0.00    -0.361 OA
ATOM     25  H   UNL d   1      36.286  18.178 -16.743  0.00  0.00     0.217 HD
ENDBRANCH  10  24
TORSDOF 5
ENDMDL
MODEL 2
REMARK VINA RESULT:    -8.417      1.016      5.292
REMARK INTER + INTRA:          -8.074
REMARK INTER:                  -9.933
REMARK INTRA:                   1.860
REMARK UNBOUND:                 2.066
REMARK  5 active torsions:
REMARK  status: ('A' for Active; 'I' for Inactive)
REMARK    1  A    between atoms: O_2  and  C_13 
REMARK    2  A    between atoms: O_3  and  C_19 
REMARK    3  A    between atoms: O_5  and  C_17 
REMARK    4  A    between atoms: O_6  and  C_21 
REMARK    5  A    between atoms: C_8  and  C_10 
ROOT
ATOM      1  O   UNL d   1      32.818  14.598 -19.560  0.00  0.00    -0.309 OA
ATOM      2  O   UNL d   1      35.182  13.301 -20.873  0.00  0.00    -0.287 OA
ATOM      3  C   UNL d   1      33.536  13.834 -20.938  0.00  0.00     0.081 A 
ATOM      4  C   UNL d   1      33.676  14.497 -19.056  0.00  0.00     0.090 A 
ATOM      5  C   UNL d   1      32.748  14.267 -20.500  0.00  0.00     0.095 A 
ATOM      6  C   UNL d   1      34.394  13.733 -20.435  0.00  0.00     0.190 A 
ATOM      7  C   UNL d   1      34.464  14.065 -19.494  0.00  0.00     0.094 A 
ATOM      8  C   UNL d   1      33.478  13.485 -21.917  0.00  0.00     0.085 A 
ATOM      9  C   UNL d   1      31.847  14.379 -21.012  0.00  0.00     0.075 A 
ATOM     10  C   UNL d   1      31.766  14.037 -21.992  0.00  0.00     0.071 A 
ATOM     11  C   UNL d   1      32.587  13.587 -22.448  0.00  0.00     0.074 A 
ENDROOT
BRANCH   4  12
ATOM     12  C   UNL d   1      33.746  14.828 -18.116  0.00  0.00     0.001 A 
ATOM     13  C   UNL d   1      34.262  15.661 -17.916  0.00  0.00     0.054 A 
ATOM     14  C   UNL d   1      34.332  15.992 -16.975  0.00  0.00     0.102 A 
ATOM     15  C   UNL d   1      33.886  15.491 -16.234  0.00  0.00     0.099 A 
ATOM     16  C   UNL d   1      33.369  14.658 -16.434  0.00  0.00     0.040 A 
ATOM     17  C   UNL d   1      33.299  14.327 -17.374  0.00  0.00     0.017 A 
BRANCH  14  18
ATOM     18  O   UNL d   1      34.849  16.825 -16.775  0.00  0.00    -0.353 OA
ATOM     19  C   UNL d   1      35.037  17.483 -17.504  0.00  0.00     0.210 C 
ENDBRANCH  14  18
BRANCH  15  20
ATOM     20  O   UNL d   1      33.956  15.822 -15.293  0.00  0.00    -0.358 OA
ATOM     21  H   UNL d   1      34.200  16.380 -15.178  0.00  0.00     0.217 HD
ENDBRANCH  15  20
ENDBRANCH   4  12
BRANCH   8  22
ATOM     22  O   UNL d   1      34.272  13.054 -22.345  0.00  0.00    -0.360 OA
ATOM     23  H   UNL d   1      34.469  12.501 -22.147  0.00  0.00     0.217 HD
ENDBRANCH   8  22
BRANCH  10  24
ATOM     24  O   UNL d   1      30.906  14.140 -22.492  0.00  0.00    -0.361 OA
ATOM     25  H   UNL d   1      30.908  14.372 -23.066  0.00  0.00     0.217 HD
ENDBRANCH  10  24
TORSDOF 5
ENDMDL
MODEL 3
REMARK VINA RESULT:    -7.979      1.029      5.093
REMARK INTER + INTRA:          -7.545
REMARK INTER:                  -9.435
REMARK INTRA:                   1.890
REMARK UNBOUND:                 2.066
REMARK  5 active torsions:
REMARK  status: ('A' for Active; 'I' for Inactive)
REMARK    1  A    between atoms: O_2  and  C_13 
REMARK    2  A    between atoms: O_3  and  C_19 
REMARK    3  A    between atoms: O_5  and  C_17 
REMARK    4  A    between atoms: O_6  and  C_21 
REMARK    5  A    between atoms: C_8  and  C_10 
ROOT
ATOM      1  O   UNL d   1      34.614  14.445 -19.112  0.00  0.00    -0.309 OA
ATOM      2  O   UNL d   1      31.931  14.301 -20.445  0.00  0.00    -0.287 OA
ATOM      3  C   UNL d   1      33.649  14.089 -20.505  0.00  0.00     0.081 A 
ATOM      4  C   UNL d   1      33.791  14.704 -18.607  0.00  0.00     0.090 A 
ATOM      5  C   UNL d   1      34.543  14.137 -20.061  0.00  0.00     0.095 A 
ATOM      6  C   UNL d   1      32.825  14.349 -20.001  0.00  0.00     0.190 A 
ATOM      7  C   UNL d   1      32.896  14.657 -19.052  0.00  0.00     0.094 A 
ATOM      8  C   UNL d   1      33.559  13.770 -21.492  0.00  0.00     0.085 A 
ATOM      9  C   UNL d   1      35.410  13.870 -20.573  0.00  0.00     0.075 A 
ATOM     10  C   UNL d   1      35.344  13.548 -21.561  0.00  0.00     0.071 A 
ATOM     11  C   UNL d   1      34.413  13.498 -22.024  0.00  0.00     0.074 A 
ENDROOT
BRANCH   4  12
ATOM     12  C   UNL d   1      33.862  15.012 -17.659  0.00  0.00     0.001 A 
ATOM     13  C   UNL d   1      34.284  15.894 -17.449  0.00  0.00     0.054 A 
ATOM     14  C   UNL d   1      34.355  16.202 -16.500  0.00  0.00     0.102 A 
ATOM     15  C   UNL d   1      34.004  15.628 -15.761  0.00  0.00     0.099 A 
ATOM     16  C   UNL d   1      33.581  14.746 -15.970  0.00  0.00     0.040 A 
ATOM     17  C   UNL d   1      33.510  14.438 -16.919  0.00  0.00     0.017 A 
BRANCH  14  18
ATOM     18  O   UNL d   1      34.778  17.084 -16.291  0.00  0.00    -0.353 OA
ATOM     19  C   UNL d   1      35.419  17.497 -16.937  0.00  0.00     0.210 C 
ENDBRANCH  14  18
BRANCH  15  20
ATOM     20  O   UNL d   1      34.075  15.935 -14.812  0.00  0.00    -0.358 OA
ATOM     21  H   UNL d   1      34.531  16.320 -14.644  0.00  0.00     0.217 HD
ENDBRANCH  15  20
ENDBRANCH   4  12
BRANCH   8  22
ATOM     22  O   UNL d   1      32.660  13.727 -21.927  0.00  0.00    -0.360 OA
ATOM     23  H   UNL d   1      32.614  13.715 -22.545  0.00  0.00     0.217 HD
ENDBRANCH   8  22
BRANCH  10  24
ATOM     24  O   UNL d   1      36.170  13.289 -22.062  0.00  0.00    -0.361 OA
ATOM     25  H   UNL d   1      36.563  13.727 -22.258  0.00  0.00     0.217 HD
ENDBRANCH  10  24
TORSDOF 5
ENDMDL
MODEL 4
REMARK VINA RESULT:    -7.436      1.599      3.052
REMARK INTER + INTRA:          -6.892
REMARK INTER:                  -8.856
REMARK INTRA:                   1.964
REMARK UNBOUND:                 2.066
REMARK  5 active torsions:
REMARK  status: ('A' for Active; 'I' for Inactive)
REMARK    1  A    between atoms: O_2  and  C_13 
REMARK    2  A    between atoms: O_3  and  C_19 
REMARK    3  A    between atoms: O_5  and  C_17 
REMARK    4  A    between atoms: O_6  and  C_21 
REMARK    5  A    between atoms: C_8  and  C_10 
ROOT
ATOM      1  O   UNL d   1      32.990  14.339 -20.253  0.00  0.00    -0.309 OA
ATOM      2  O   UNL d   1      34.805  16.723 -20.390  0.00  0.00    -0.287 OA
ATOM      3  C   UNL d   1      34.040  15.472 -19.469  0.00  0.00     0.081 A 
ATOM      4  C   UNL d   1      33.150  14.796 -21.128  0.00  0.00     0.090 A 
ATOM      5  C   UNL d   1      33.435  14.677 -19.424  0.00  0.00     0.095 A 
ATOM      6  C   UNL d   1      34.200  15.929 -20.344  0.00  0.00     0.190 A 
ATOM      7  C   UNL d   1      33.755  15.590 -21.174  0.00  0.00     0.094 A 
ATOM      8  C   UNL d   1      34.510  15.835 -18.614  0.00  0.00     0.085 A 
ATOM      9  C   UNL d   1      33.258  14.190 -18.519  0.00  0.00     0.075 A 
ATOM     10  C   UNL d   1      33.719  14.537 -17.651  0.00  0.00     0.071 A 
ATOM     11  C   UNL d   1      34.348  15.364 -17.699  0.00  0.00     0.074 A 
ENDROOT
BRANCH   4  12
ATOM     12  C   UNL d   1      32.705  14.458 -21.957  0.00  0.00     0.001 A 
ATOM     13  C   UNL d   1      32.154  15.076 -22.516  0.00  0.00     0.054 A 
ATOM     14  C   UNL d   1      31.709  14.738 -23.346  0.00  0.00     0.102 A 
ATOM     15  C   UNL d   1      31.815  13.781 -23.616  0.00  0.00     0.099 A 
ATOM     16  C   UNL d   1      32.367  13.163 -23.056  0.00  0.00     0.040 A 
ATOM     17  C   UNL d   1      32.812  13.501 -22.227  0.00  0.00     0.017 A 
BRANCH  14  18
ATOM     18  O   UNL d   1      31.157  15.357 -23.905  0.00  0.00    -0.353 OA
ATOM     19  C   UNL d   1      31.288  16.346 -23.834  0.00  0.00     0.210 C 
ENDBRANCH  14  18
BRANCH  15  20
ATOM     20  O   UNL d   1      31.370  13.443 -24.445  0.00  0.00    -0.358 OA
ATOM     21  H   UNL d   1      30.894  13.756 -24.691  0.00  0.00     0.217 HD
ENDBRANCH  15  20
ENDBRANCH   4  12
BRANCH   8  22
ATOM     22  O   UNL d   1      35.114  16.631 -18.672  0.00  0.00    -0.360 OA
ATOM     23  H   UNL d   1      35.540  16.664 -19.120  0.00  0.00     0.217 HD
ENDBRANCH   8  22
BRANCH  10  24
ATOM     24  O   UNL d   1      33.556  14.077 -16.778  0.00  0.00    -0.361 OA
ATOM     25  H   UNL d   1      33.180  14.335 -16.358  0.00  0.00     0.217 HD
ENDBRANCH  10  24
TORSDOF 5
ENDMDL
MODEL 5
REMARK VINA RESULT:    -7.419     24.119     25.618
REMARK INTER + INTRA:          -6.871
REMARK INTER:                  -8.941
REMARK INTRA:                   2.071
REMARK UNBOUND:                 2.066
REMARK  5 active torsions:
REMARK  status: ('A' for Active; 'I' for Inactive)
REMARK    1  A    between atoms: O_2  and  C_13 
REMARK    2  A    between atoms: O_3  and  C_19 
REMARK    3  A    between atoms: O_5  and  C_17 
REMARK    4  A    between atoms: O_6  and  C_21 
REMARK    5  A    between atoms: C_8  and  C_10 
ROOT
ATOM      1  O   UNL d   1      23.673   9.374   2.946  0.00  0.00    -0.309 OA
ATOM      2  O   UNL d   1      21.581   7.961   4.566  0.00  0.00    -0.287 OA
ATOM      3  C   UNL d   1      22.027   9.219   3.463  0.00  0.00     0.081 A 
ATOM      4  C   UNL d   1      23.924   8.587   3.509  0.00  0.00     0.090 A 
ATOM      5  C   UNL d   1      22.725   9.691   2.923  0.00  0.00     0.095 A 
ATOM      6  C   UNL d   1      22.278   8.432   4.026  0.00  0.00     0.190 A 
ATOM      7  C   UNL d   1      23.227   8.116   4.049  0.00  0.00     0.094 A 
ATOM      8  C   UNL d   1      21.036   9.537   3.449  0.00  0.00     0.085 A 
ATOM      9  C   UNL d   1      22.479  10.512   2.331  0.00  0.00     0.075 A 
ATOM     10  C   UNL d   1      21.493  10.847   2.302  0.00  0.00     0.071 A 
ATOM     11  C   UNL d   1      20.767  10.357   2.864  0.00  0.00     0.074 A 
ENDROOT
BRANCH   4  12
ATOM     12  C   UNL d   1      24.872   8.271   3.532  0.00  0.00     0.001 A 
ATOM     13  C   UNL d   1      25.284   7.988   4.398  0.00  0.00     0.054 A 
ATOM     14  C   UNL d   1      26.232   7.671   4.421  0.00  0.00     0.102 A 
ATOM     15  C   UNL d   1      26.769   7.638   3.578  0.00  0.00     0.099 A 
ATOM     16  C   UNL d   1      26.357   7.922   2.712  0.00  0.00     0.040 A 
ATOM     17  C   UNL d   1      25.409   8.238   2.689  0.00  0.00     0.017 A 
BRANCH  14  18
ATOM     18  O   UNL d   1      26.644   7.388   5.287  0.00  0.00    -0.353 OA
ATOM     19  C   UNL d   1      26.140   7.506   6.143  0.00  0.00     0.210 C 
ENDBRANCH  14  18
BRANCH  15  20
ATOM     20  O   UNL d   1      27.717   7.322   3.601  0.00  0.00    -0.358 OA
ATOM     21  H   UNL d   1      28.026   7.306   4.139  0.00  0.00     0.217 HD
ENDBRANCH  15  20
ENDBRANCH   4  12
BRANCH   8  22
ATOM     22  O   UNL d   1      20.347   9.059   3.993  0.00  0.00    -0.360 OA
ATOM     23  H   UNL d   1      20.376   8.443   4.058  0.00  0.00     0.217 HD
ENDBRANCH   8  22
BRANCH  10  24
ATOM     24  O   UNL d   1      21.246  11.635   1.737  0.00  0.00    -0.361 OA
ATOM     25  H   UNL d   1      21.094  12.173   2.006  0.00  0.00     0.217 HD
ENDBRANCH  10  24
TORSDOF 5
ENDMDL
