MODEL 1
REMARK VINA RESULT:    -8.368      0.000      0.000
REMARK INTER + INTRA:           1.281
REMARK INTER:                 -11.197
REMARK INTRA:                  12.478
REMARK UNBOUND:                12.583
REMARK  9 active torsions:
REMARK  status: ('A' for Active; 'I' for Inactive)
REMARK    1  A    between atoms: C_15  and  O_2 
REMARK    2  A    between atoms: O_2  and  C_17 
REMARK    3  A    between atoms: C_11  and  O_3 
REMARK    4  A    between atoms: C_12  and  O_4 
REMARK    5  A    between atoms: C_13  and  O_5 
REMARK    6  A    between atoms: O_8  and  C_23 
REMARK    7  A    between atoms: O_9  and  C_28 
REMARK    8  A    between atoms: O_10  and  C_31 
REMARK    9  A    between atoms: C_18  and  C_22 
ROOT
ATOM      1  O   UNL d   1      32.777  14.414 -19.852  0.00  0.00    -0.306 OA
ATOM      2  O   UNL d   1      35.038  16.352 -20.212  0.00  0.00    -0.284 OA
ATOM      3  C   UNL d   1      33.734  15.427 -20.879  0.00  0.00     0.157 A 
ATOM      4  C   UNL d   1      32.980  14.781 -20.759  0.00  0.00     0.123 A 
ATOM      5  C   UNL d   1      34.284  15.706 -20.092  0.00  0.00     0.223 A 
ATOM      6  C   UNL d   1      34.080  15.338 -19.185  0.00  0.00     0.084 A 
ATOM      7  C   UNL d   1      33.327  14.692 -19.065  0.00  0.00     0.096 A 
ATOM      8  C   UNL d   1      34.662  15.637 -18.374  0.00  0.00     0.085 A 
ATOM      9  C   UNL d   1      33.102  14.300 -18.125  0.00  0.00     0.075 A 
ATOM     10  C   UNL d   1      34.456  15.258 -17.426  0.00  0.00     0.074 A 
ATOM     11  C   UNL d   1      33.671  14.585 -17.300  0.00  0.00     0.071 A 
ENDROOT
BRANCH   3  12
ATOM     12  O   UNL d   1      33.938  15.795 -21.787  0.00  0.00    -0.311 OA
BRANCH  12  13
ATOM     13  C   UNL d   1      34.775  15.523 -22.260  0.00  0.00     0.298 A 
ATOM     14  O   UNL d   1      35.155  14.609 -22.119  0.00  0.00    -0.351 OA
ATOM     15  C   UNL d   1      35.993  14.337 -22.592  0.00  0.00     0.152 A 
ATOM     16  C   UNL d   1      36.451  14.979 -23.207  0.00  0.00     0.178 A 
ATOM     17  C   UNL d   1      36.373  13.423 -22.450  0.00  0.00     0.042 C 
ATOM     18  C   UNL d   1      36.071  15.893 -23.349  0.00  0.00     0.183 A 
ATOM     19  C   UNL d   1      35.233  16.165 -22.875  0.00  0.00     0.205 A 
BRANCH  16  20
ATOM     20  O   UNL d   1      37.288  14.706 -23.680  0.00  0.00    -0.390 OA
ATOM     21  H   UNL d   1      37.839  14.780 -23.404  0.00  0.00     0.210 HD
ENDBRANCH  16  20
BRANCH  18  22
ATOM     22  O   UNL d   1      36.529  16.535 -23.964  0.00  0.00    -0.390 OA
ATOM     23  H   UNL d   1      37.067  16.793 -23.797  0.00  0.00     0.210 HD
ENDBRANCH  18  22
BRANCH  19  24
ATOM     24  O   UNL d   1      34.853  17.079 -23.017  0.00  0.00    -0.388 OA
ATOM     25  H   UNL d   1      34.245  17.176 -22.946  0.00  0.00     0.210 HD
ENDBRANCH  19  24
ENDBRANCH  12  13
ENDBRANCH   3  12
BRANCH   4  26
ATOM     26  C   UNL d   1      32.430  14.503 -21.547  0.00  0.00     0.001 A 
ATOM     27  C   UNL d   1      31.766  15.138 -21.942  0.00  0.00     0.017 A 
ATOM     28  C   UNL d   1      31.216  14.860 -22.730  0.00  0.00     0.037 A 
ATOM     29  C   UNL d   1      31.330  13.947 -23.121  0.00  0.00     0.065 A 
ATOM     30  C   UNL d   1      31.993  13.312 -22.726  0.00  0.00     0.037 A 
ATOM     31  C   UNL d   1      32.544  13.590 -21.938  0.00  0.00     0.017 A 
BRANCH  29  32
ATOM     32  O   UNL d   1      30.780  13.668 -23.909  0.00  0.00    -0.361 OA
ATOM     33  H   UNL d   1      30.195  13.477 -23.827  0.00  0.00     0.217 HD
ENDBRANCH  29  32
ENDBRANCH   4  26
BRANCH   8  34
ATOM     34  O   UNL d   1      35.414  16.284 -18.506  0.00  0.00    -0.360 OA
ATOM     35  H   UNL d   1      35.768  16.249 -19.014  0.00  0.00     0.217 HD
ENDBRANCH   8  34
BRANCH  11  36
ATOM     36  O   UNL d   1      33.464  14.215 -16.395  0.00  0.00    -0.361 OA
ATOM     37  H   UNL d   1      33.831  14.352 -15.913  0.00  0.00     0.217 HD
ENDBRANCH  11  36
TORSDOF 9
ENDMDL
MODEL 2
REMARK VINA RESULT:    -8.184     12.683     15.492
REMARK INTER + INTRA:           1.528
REMARK INTER:                 -10.910
REMARK INTRA:                  12.438
REMARK UNBOUND:                12.583
REMARK  9 active torsions:
REMARK  status: ('A' for Active; 'I' for Inactive)
REMARK    1  A    between atoms: C_15  and  O_2 
REMARK    2  A    between atoms: O_2  and  C_17 
REMARK    3  A    between atoms: C_11  and  O_3 
REMARK    4  A    between atoms: C_12  and  O_4 
REMARK    5  A    between atoms: C_13  and  O_5 
REMARK    6  A    between atoms: O_8  and  C_23 
REMARK    7  A    between atoms: O_9  and  C_28 
REMARK    8  A    between atoms: O_10  and  C_31 
REMARK    9  A    between atoms: C_18  and  C_22 
ROOT
ATOM      1  O   UNL d   1      48.554  22.441 -23.312  0.00  0.00    -0.306 OA
ATOM      2  O   UNL d   1      47.905  19.583 -22.672  0.00  0.00    -0.284 OA
ATOM      3  C   UNL d   1      48.142  20.843 -23.837  0.00  0.00     0.157 A 
ATOM      4  C   UNL d   1      48.358  21.795 -24.050  0.00  0.00     0.123 A 
ATOM      5  C   UNL d   1      48.121  20.536 -22.885  0.00  0.00     0.223 A 
ATOM      6  C   UNL d   1      48.317  21.181 -22.147  0.00  0.00     0.084 A 
ATOM      7  C   UNL d   1      48.533  22.134 -22.360  0.00  0.00     0.096 A 
ATOM      8  C   UNL d   1      48.291  20.847 -21.161  0.00  0.00     0.085 A 
ATOM      9  C   UNL d   1      48.738  22.818 -21.602  0.00  0.00     0.075 A 
ATOM     10  C   UNL d   1      48.493  21.514 -20.386  0.00  0.00     0.074 A 
ATOM     11  C   UNL d   1      48.719  22.506 -20.608  0.00  0.00     0.071 A 
ENDROOT
BRANCH   3  12
ATOM     12  O   UNL d   1      47.947  20.197 -24.575  0.00  0.00    -0.311 OA
BRANCH  12  13
ATOM     13  C   UNL d   1      47.019  19.844 -24.698  0.00  0.00     0.298 A 
ATOM     14  O   UNL d   1      46.241  20.335 -24.307  0.00  0.00    -0.351 OA
ATOM     15  C   UNL d   1      45.314  19.983 -24.430  0.00  0.00     0.152 A 
ATOM     16  C   UNL d   1      45.164  19.139 -24.945  0.00  0.00     0.178 A 
ATOM     17  C   UNL d   1      44.536  20.474 -24.038  0.00  0.00     0.042 C 
ATOM     18  C   UNL d   1      45.942  18.648 -25.337  0.00  0.00     0.183 A 
ATOM     19  C   UNL d   1      46.870  19.000 -25.214  0.00  0.00     0.205 A 
BRANCH  16  20
ATOM     20  O   UNL d   1      44.237  18.786 -25.069  0.00  0.00    -0.390 OA
ATOM     21  H   UNL d   1      44.142  18.273 -25.403  0.00  0.00     0.210 HD
ENDBRANCH  16  20
BRANCH  18  22
ATOM     22  O   UNL d   1      45.792  17.804 -25.852  0.00  0.00    -0.390 OA
ATOM     23  H   UNL d   1      45.218  17.638 -26.016  0.00  0.00     0.210 HD
ENDBRANCH  18  22
BRANCH  19  24
ATOM     24  O   UNL d   1      47.648  18.509 -25.606  0.00  0.00    -0.388 OA
ATOM     25  H   UNL d   1      47.812  17.957 -25.378  0.00  0.00     0.210 HD
ENDBRANCH  19  24
ENDBRANCH  12  13
ENDBRANCH   3  12
BRANCH   4  26
ATOM     26  C   UNL d   1      48.379  22.103 -25.001  0.00  0.00     0.001 A 
ATOM     27  C   UNL d   1      47.607  22.613 -25.379  0.00  0.00     0.017 A 
ATOM     28  C   UNL d   1      47.628  22.920 -26.330  0.00  0.00     0.037 A 
ATOM     29  C   UNL d   1      48.421  22.717 -26.904  0.00  0.00     0.065 A 
ATOM     30  C   UNL d   1      49.193  22.206 -26.527  0.00  0.00     0.037 A 
ATOM     31  C   UNL d   1      49.172  21.899 -25.575  0.00  0.00     0.017 A 
BRANCH  29  32
ATOM     32  O   UNL d   1      48.442  23.024 -27.856  0.00  0.00    -0.361 OA
ATOM     33  H   UNL d   1      47.937  22.966 -28.211  0.00  0.00     0.217 HD
ENDBRANCH  29  32
ENDBRANCH   4  26
BRANCH   8  34
ATOM     34  O   UNL d   1      48.074  19.892 -20.959  0.00  0.00    -0.360 OA
ATOM     35  H   UNL d   1      47.956  19.496 -21.422  0.00  0.00     0.217 HD
ENDBRANCH   8  34
BRANCH  11  36
ATOM     36  O   UNL d   1      48.915  23.155 -19.873  0.00  0.00    -0.361 OA
ATOM     37  H   UNL d   1      49.467  23.436 -19.847  0.00  0.00     0.217 HD
ENDBRANCH  11  36
TORSDOF 9
ENDMDL
MODEL 3
REMARK VINA RESULT:    -7.738     18.263     20.133
REMARK INTER + INTRA:           2.131
REMARK INTER:                 -10.320
REMARK INTRA:                  12.451
REMARK UNBOUND:                12.583
REMARK  9 active torsions:
REMARK  status: ('A' for Active; 'I' for Inactive)
REMARK    1  A    between atoms: C_15  and  O_2 
REMARK    2  A    between atoms: O_2  and  C_17 
REMARK    3  A    between atoms: C_11  and  O_3 
REMARK    4  A    between atoms: C_12  and  O_4 
REMARK    5  A    between atoms: C_13  and  O_5 
REMARK    6  A    between atoms: O_8  and  C_23 
REMARK    7  A    between atoms: O_9  and  C_28 
REMARK    8  A    between atoms: O_10  and  C_31 
REMARK    9  A    between atoms: C_18  and  C_22 
ROOT
ATOM      1  O   UNL d   1      46.682  27.156  -9.670  0.00  0.00    -0.306 OA
ATOM      2  O   UNL d   1      46.947  25.490 -12.150  0.00  0.00    -0.284 OA
ATOM      3  C   UNL d   1      46.208  26.804 -11.298  0.00  0.00     0.157 A 
ATOM      4  C   UNL d   1      46.120  27.359 -10.471  0.00  0.00     0.123 A 
ATOM      5  C   UNL d   1      46.859  26.045 -11.324  0.00  0.00     0.223 A 
ATOM      6  C   UNL d   1      47.421  25.841 -10.522  0.00  0.00     0.084 A 
ATOM      7  C   UNL d   1      47.333  26.397  -9.695  0.00  0.00     0.096 A 
ATOM      8  C   UNL d   1      48.094  25.048 -10.564  0.00  0.00     0.085 A 
ATOM      9  C   UNL d   1      47.912  26.197  -8.852  0.00  0.00     0.075 A 
ATOM     10  C   UNL d   1      48.684  24.829  -9.732  0.00  0.00     0.074 A 
ATOM     11  C   UNL d   1      48.592  25.408  -8.871  0.00  0.00     0.071 A 
ENDROOT
BRANCH   3  12
ATOM     12  O   UNL d   1      45.646  27.007 -12.100  0.00  0.00    -0.311 OA
BRANCH  12  13
ATOM     13  C   UNL d   1      46.073  27.348 -12.937  0.00  0.00     0.298 A 
ATOM     14  O   UNL d   1      46.895  27.915 -12.884  0.00  0.00    -0.351 OA
ATOM     15  C   UNL d   1      47.323  28.255 -13.722  0.00  0.00     0.152 A 
ATOM     16  C   UNL d   1      46.929  28.028 -14.612  0.00  0.00     0.178 A 
ATOM     17  C   UNL d   1      48.145  28.822 -13.669  0.00  0.00     0.042 C 
ATOM     18  C   UNL d   1      46.107  27.461 -14.665  0.00  0.00     0.183 A 
ATOM     19  C   UNL d   1      45.679  27.120 -13.828  0.00  0.00     0.205 A 
BRANCH  16  20
ATOM     20  O   UNL d   1      47.356  28.368 -15.450  0.00  0.00    -0.390 OA
ATOM     21  H   UNL d   1      47.636  28.921 -15.452  0.00  0.00     0.210 HD
ENDBRANCH  16  20
BRANCH  18  22
ATOM     22  O   UNL d   1      45.712  27.233 -15.556  0.00  0.00    -0.390 OA
ATOM     23  H   UNL d   1      45.146  26.983 -15.589  0.00  0.00     0.210 HD
ENDBRANCH  18  22
BRANCH  19  24
ATOM     24  O   UNL d   1      44.857  26.553 -13.881  0.00  0.00    -0.388 OA
ATOM     25  H   UNL d   1      44.883  25.954 -13.724  0.00  0.00     0.210 HD
ENDBRANCH  19  24
ENDBRANCH  12  13
ENDBRANCH   3  12
BRANCH   4  26
ATOM     26  C   UNL d   1      45.469  28.118 -10.446  0.00  0.00     0.001 A 
ATOM     27  C   UNL d   1      45.798  29.061 -10.508  0.00  0.00     0.017 A 
ATOM     28  C   UNL d   1      45.147  29.820 -10.482  0.00  0.00     0.037 A 
ATOM     29  C   UNL d   1      44.168  29.636 -10.395  0.00  0.00     0.065 A 
ATOM     30  C   UNL d   1      43.839  28.694 -10.333  0.00  0.00     0.037 A 
ATOM     31  C   UNL d   1      44.490  27.935 -10.359  0.00  0.00     0.017 A 
BRANCH  29  32
ATOM     32  O   UNL d   1      43.517  30.395 -10.370  0.00  0.00    -0.361 OA
ATOM     33  H   UNL d   1      43.439  30.753 -10.870  0.00  0.00     0.217 HD
ENDBRANCH  29  32
ENDBRANCH   4  26
BRANCH   8  34
ATOM     34  O   UNL d   1      48.174  24.499 -11.396  0.00  0.00    -0.360 OA
ATOM     35  H   UNL d   1      48.636  24.088 -11.453  0.00  0.00     0.217 HD
ENDBRANCH   8  34
BRANCH  11  36
ATOM     36  O   UNL d   1      49.152  25.207  -8.068  0.00  0.00    -0.361 OA
ATOM     37  H   UNL d   1      49.148  25.594  -7.582  0.00  0.00     0.217 HD
ENDBRANCH  11  36
TORSDOF 9
ENDMDL
MODEL 4
REMARK VINA RESULT:    -7.673     18.259     20.882
REMARK INTER + INTRA:           2.220
REMARK INTER:                 -10.214
REMARK INTRA:                  12.434
REMARK UNBOUND:                12.583
REMARK  9 active torsions:
REMARK  status: ('A' for Active; 'I' for Inactive)
REMARK    1  A    between atoms: C_15  and  O_2 
REMARK    2  A    between atoms: O_2  and  C_17 
REMARK    3  A    between atoms: C_11  and  O_3 
REMARK    4  A    between atoms: C_12  and  O_4 
REMARK    5  A    between atoms: C_13  and  O_5 
REMARK    6  A    between atoms: O_8  and  C_23 
REMARK    7  A    between atoms: O_9  and  C_28 
REMARK    8  A    between atoms: O_10  and  C_31 
REMARK    9  A    between atoms: C_18  and  C_22 
ROOT
ATOM      1  O   UNL d   1      46.613  28.980 -12.775  0.00  0.00    -0.306 OA
ATOM      2  O   UNL d   1      45.899  26.070 -12.621  0.00  0.00    -0.284 OA
ATOM      3  C   UNL d   1      46.399  27.535 -11.844  0.00  0.00     0.157 A 
ATOM      4  C   UNL d   1      46.637  28.505 -11.896  0.00  0.00     0.123 A 
ATOM      5  C   UNL d   1      46.137  27.040 -12.673  0.00  0.00     0.223 A 
ATOM      6  C   UNL d   1      46.113  27.515 -13.552  0.00  0.00     0.084 A 
ATOM      7  C   UNL d   1      46.351  28.485 -13.604  0.00  0.00     0.096 A 
ATOM      8  C   UNL d   1      45.838  26.986 -14.407  0.00  0.00     0.085 A 
ATOM      9  C   UNL d   1      46.330  28.993 -14.513  0.00  0.00     0.075 A 
ATOM     10  C   UNL d   1      45.811  27.473 -15.327  0.00  0.00     0.074 A 
ATOM     11  C   UNL d   1      46.059  28.484 -15.381  0.00  0.00     0.071 A 
ENDROOT
BRANCH   3  12
ATOM     12  O   UNL d   1      46.423  27.060 -10.964  0.00  0.00    -0.311 OA
BRANCH  12  13
ATOM     13  C   UNL d   1      47.147  26.398 -10.773  0.00  0.00     0.298 A 
ATOM     14  O   UNL d   1      47.983  26.400 -11.321  0.00  0.00    -0.351 OA
ATOM     15  C   UNL d   1      48.708  25.737 -11.130  0.00  0.00     0.152 A 
ATOM     16  C   UNL d   1      48.596  25.073 -10.391  0.00  0.00     0.178 A 
ATOM     17  C   UNL d   1      49.544  25.739 -11.678  0.00  0.00     0.042 C 
ATOM     18  C   UNL d   1      47.759  25.071  -9.843  0.00  0.00     0.183 A 
ATOM     19  C   UNL d   1      47.035  25.734 -10.034  0.00  0.00     0.205 A 
BRANCH  16  20
ATOM     20  O   UNL d   1      49.320  24.411 -10.200  0.00  0.00    -0.390 OA
ATOM     21  H   UNL d   1      49.495  24.303  -9.615  0.00  0.00     0.210 HD
ENDBRANCH  16  20
BRANCH  18  22
ATOM     22  O   UNL d   1      47.647  24.407  -9.104  0.00  0.00    -0.390 OA
ATOM     23  H   UNL d   1      48.122  24.281  -8.726  0.00  0.00     0.210 HD
ENDBRANCH  18  22
BRANCH  19  24
ATOM     24  O   UNL d   1      46.199  25.732  -9.486  0.00  0.00    -0.388 OA
ATOM     25  H   UNL d   1      46.029  25.220  -9.181  0.00  0.00     0.210 HD
ENDBRANCH  19  24
ENDBRANCH  12  13
ENDBRANCH   3  12
BRANCH   4  26
ATOM     26  C   UNL d   1      46.898  29.000 -11.067  0.00  0.00     0.001 A 
ATOM     27  C   UNL d   1      47.855  29.248 -10.914  0.00  0.00     0.017 A 
ATOM     28  C   UNL d   1      48.117  29.743 -10.086  0.00  0.00     0.037 A 
ATOM     29  C   UNL d   1      47.422  29.991  -9.410  0.00  0.00     0.065 A 
ATOM     30  C   UNL d   1      46.465  29.743  -9.564  0.00  0.00     0.037 A 
ATOM     31  C   UNL d   1      46.203  29.248 -10.392  0.00  0.00     0.017 A 
BRANCH  29  32
ATOM     32  O   UNL d   1      47.684  30.486  -8.582  0.00  0.00    -0.361 OA
ATOM     33  H   UNL d   1      48.030  30.207  -8.150  0.00  0.00     0.217 HD
ENDBRANCH  29  32
ENDBRANCH   4  26
BRANCH   8  34
ATOM     34  O   UNL d   1      45.603  26.016 -14.344  0.00  0.00    -0.360 OA
ATOM     35  H   UNL d   1      45.170  25.827 -13.941  0.00  0.00     0.217 HD
ENDBRANCH   8  34
BRANCH  11  36
ATOM     36  O   UNL d   1      46.036  28.962 -16.259  0.00  0.00    -0.361 OA
ATOM     37  H   UNL d   1      45.889  29.564 -16.280  0.00  0.00     0.217 HD
ENDBRANCH  11  36
TORSDOF 9
ENDMDL
MODEL 5
REMARK VINA RESULT:    -7.657      1.538      1.992
REMARK INTER + INTRA:           2.240
REMARK INTER:                 -10.328
REMARK INTRA:                  12.568
REMARK UNBOUND:                12.583
REMARK  9 active torsions:
REMARK  status: ('A' for Active; 'I' for Inactive)
REMARK    1  A    between atoms: C_15  and  O_2 
REMARK    2  A    between atoms: O_2  and  C_17 
REMARK    3  A    between atoms: C_11  and  O_3 
REMARK    4  A    between atoms: C_12  and  O_4 
REMARK    5  A    between atoms: C_13  and  O_5 
REMARK    6  A    between atoms: O_8  and  C_23 
REMARK    7  A    between atoms: O_9  and  C_28 
REMARK    8  A    between atoms: O_10  and  C_31 
REMARK    9  A    between atoms: C_18  and  C_22 
ROOT
ATOM      1  O   UNL d   1      32.428  14.660 -20.650  0.00  0.00    -0.306 OA
ATOM      2  O   UNL d   1      35.398  14.239 -20.643  0.00  0.00    -0.284 OA
ATOM      3  C   UNL d   1      33.931  14.559 -21.505  0.00  0.00     0.157 A 
ATOM      4  C   UNL d   1      32.941  14.700 -21.508  0.00  0.00     0.123 A 
ATOM      5  C   UNL d   1      34.408  14.379 -20.645  0.00  0.00     0.223 A 
ATOM      6  C   UNL d   1      33.896  14.340 -19.788  0.00  0.00     0.084 A 
ATOM      7  C   UNL d   1      32.905  14.481 -19.790  0.00  0.00     0.096 A 
ATOM      8  C   UNL d   1      34.407  14.152 -18.900  0.00  0.00     0.085 A 
ATOM      9  C   UNL d   1      32.358  14.443 -18.904  0.00  0.00     0.075 A 
ATOM     10  C   UNL d   1      33.879  14.110 -18.002  0.00  0.00     0.074 A 
ATOM     11  C   UNL d   1      32.848  14.256 -18.004  0.00  0.00     0.071 A 
ENDROOT
BRANCH   3  12
ATOM     12  O   UNL d   1      34.444  14.598 -22.363  0.00  0.00    -0.311 OA
BRANCH  12  13
ATOM     13  C   UNL d   1      34.868  13.770 -22.730  0.00  0.00     0.298 A 
ATOM     14  O   UNL d   1      34.405  12.889 -22.639  0.00  0.00    -0.351 OA
ATOM     15  C   UNL d   1      34.829  12.061 -23.006  0.00  0.00     0.152 A 
ATOM     16  C   UNL d   1      35.717  12.115 -23.464  0.00  0.00     0.178 A 
ATOM     17  C   UNL d   1      34.367  11.179 -22.915  0.00  0.00     0.042 C 
ATOM     18  C   UNL d   1      36.179  12.997 -23.556  0.00  0.00     0.183 A 
ATOM     19  C   UNL d   1      35.755  13.824 -23.188  0.00  0.00     0.205 A 
BRANCH  16  20
ATOM     20  O   UNL d   1      36.141  11.287 -23.831  0.00  0.00    -0.390 OA
ATOM     21  H   UNL d   1      36.083  10.749 -23.529  0.00  0.00     0.210 HD
ENDBRANCH  16  20
BRANCH  18  22
ATOM     22  O   UNL d   1      37.067  13.051 -24.014  0.00  0.00    -0.390 OA
ATOM     23  H   UNL d   1      37.094  13.122 -24.629  0.00  0.00     0.210 HD
ENDBRANCH  18  22
BRANCH  19  24
ATOM     24  O   UNL d   1      36.218  14.706 -23.280  0.00  0.00    -0.388 OA
ATOM     25  H   UNL d   1      36.787  14.733 -23.523  0.00  0.00     0.210 HD
ENDBRANCH  19  24
ENDBRANCH  12  13
ENDBRANCH   3  12
BRANCH   4  26
ATOM     26  C   UNL d   1      32.464  14.879 -22.368  0.00  0.00     0.001 A 
ATOM     27  C   UNL d   1      32.572  15.762 -22.825  0.00  0.00     0.017 A 
ATOM     28  C   UNL d   1      32.094  15.942 -23.685  0.00  0.00     0.037 A 
ATOM     29  C   UNL d   1      31.509  15.239 -24.088  0.00  0.00     0.065 A 
ATOM     30  C   UNL d   1      31.401  14.356 -23.631  0.00  0.00     0.037 A 
ATOM     31  C   UNL d   1      31.878  14.176 -22.771  0.00  0.00     0.017 A 
BRANCH  29  32
ATOM     32  O   UNL d   1      31.032  15.419 -24.948  0.00  0.00    -0.361 OA
ATOM     33  H   UNL d   1      30.600  15.022 -25.152  0.00  0.00     0.217 HD
ENDBRANCH  29  32
ENDBRANCH   4  26
BRANCH   8  34
ATOM     34  O   UNL d   1      35.397  14.013 -18.909  0.00  0.00    -0.360 OA
ATOM     35  H   UNL d   1      35.699  13.899 -18.379  0.00  0.00     0.217 HD
ENDBRANCH   8  34
BRANCH  11  36
ATOM     36  O   UNL d   1      32.332  14.218 -17.149  0.00  0.00    -0.361 OA
ATOM     37  H   UNL d   1      31.761  14.458 -17.120  0.00  0.00     0.217 HD
ENDBRANCH  11  36
TORSDOF 9
ENDMDL
