MODEL 1
REMARK VINA RESULT:    -8.961      0.000      0.000
REMARK INTER + INTRA:          -8.991
REMARK INTER:                  -9.997
REMARK INTRA:                   1.006
REMARK UNBOUND:                 1.018
REMARK  3 active torsions:
REMARK  status: ('A' for Active; 'I' for Inactive)
REMARK    1  A    between atoms: O_2  and  C_10 
REMARK    2  A    between atoms: O_4  and  C_13 
REMARK    3  A    between atoms: C_7  and  C_9 
ROOT
ATOM      1  O   UNL d   1      34.372  15.625 -18.696  0.00  0.00    -0.309 OA
ATOM      2  O   UNL d   1      33.175  14.298 -16.286  0.00  0.00    -0.287 OA
ATOM      3  C   UNL d   1      34.090  15.591 -16.987  0.00  0.00     0.081 A 
ATOM      4  C   UNL d   1      34.489  16.034 -17.790  0.00  0.00     0.095 A 
ATOM      5  C   UNL d   1      33.857  14.774 -18.798  0.00  0.00     0.090 A 
ATOM      6  C   UNL d   1      33.574  14.740 -17.089  0.00  0.00     0.190 A 
ATOM      7  C   UNL d   1      34.203  16.005 -16.038  0.00  0.00     0.085 A 
ATOM      8  C   UNL d   1      33.458  14.332 -17.995  0.00  0.00     0.094 A 
ATOM      9  C   UNL d   1      35.028  16.920 -17.700  0.00  0.00     0.075 A 
ATOM     10  C   UNL d   1      35.154  17.352 -16.760  0.00  0.00     0.071 A 
ATOM     11  C   UNL d   1      34.738  16.891 -15.924  0.00  0.00     0.074 A 
ENDROOT
BRANCH   5  12
ATOM     12  C   UNL d   1      33.740  14.366 -19.703  0.00  0.00    -0.002 A 
ATOM     13  C   UNL d   1      34.464  13.795 -20.091  0.00  0.00     0.014 A 
ATOM     14  C   UNL d   1      34.347  13.386 -20.996  0.00  0.00     0.001 A 
ATOM     15  C   UNL d   1      33.507  13.549 -21.514  0.00  0.00     0.000 A 
ATOM     16  C   UNL d   1      32.784  14.121 -21.126  0.00  0.00     0.001 A 
ATOM     17  C   UNL d   1      32.900  14.529 -20.221  0.00  0.00     0.014 A 
ENDBRANCH   5  12
BRANCH   7  18
ATOM     18  O   UNL d   1      33.800  15.554 -15.242  0.00  0.00    -0.360 OA
ATOM     19  H   UNL d   1      33.254  15.747 -15.020  0.00  0.00     0.217 HD
ENDBRANCH   7  18
BRANCH  10  20
ATOM     20  O   UNL d   1      35.670  18.203 -16.662  0.00  0.00    -0.361 OA
ATOM     21  H   UNL d   1      35.529  18.600 -16.208  0.00  0.00     0.217 HD
ENDBRANCH  10  20
TORSDOF 3
ENDMDL
MODEL 2
REMARK VINA RESULT:    -8.513      0.802      2.142
REMARK INTER + INTRA:          -8.490
REMARK INTER:                  -9.489
REMARK INTRA:                   0.999
REMARK UNBOUND:                 1.018
REMARK  3 active torsions:
REMARK  status: ('A' for Active; 'I' for Inactive)
REMARK    1  A    between atoms: O_2  and  C_10 
REMARK    2  A    between atoms: O_4  and  C_13 
REMARK    3  A    between atoms: C_7  and  C_9 
ROOT
ATOM      1  O   UNL d   1      33.955  14.981 -17.923  0.00  0.00    -0.309 OA
ATOM      2  O   UNL d   1      35.114  17.721 -18.313  0.00  0.00    -0.287 OA
ATOM      3  C   UNL d   1      34.526  16.477 -17.262  0.00  0.00     0.081 A 
ATOM      4  C   UNL d   1      34.139  15.564 -17.131  0.00  0.00     0.095 A 
ATOM      5  C   UNL d   1      34.158  15.312 -18.845  0.00  0.00     0.090 A 
ATOM      6  C   UNL d   1      34.728  16.808 -18.183  0.00  0.00     0.190 A 
ATOM      7  C   UNL d   1      34.722  17.095 -16.446  0.00  0.00     0.085 A 
ATOM      8  C   UNL d   1      34.544  16.225 -18.975  0.00  0.00     0.094 A 
ATOM      9  C   UNL d   1      33.924  15.205 -16.177  0.00  0.00     0.075 A 
ATOM     10  C   UNL d   1      34.113  15.806 -15.348  0.00  0.00     0.071 A 
ATOM     11  C   UNL d   1      34.515  16.757 -15.483  0.00  0.00     0.074 A 
ENDROOT
BRANCH   5  12
ATOM     12  C   UNL d   1      33.973  14.730 -19.637  0.00  0.00    -0.002 A 
ATOM     13  C   UNL d   1      33.093  14.789 -20.107  0.00  0.00     0.014 A 
ATOM     14  C   UNL d   1      32.909  14.206 -20.899  0.00  0.00     0.001 A 
ATOM     15  C   UNL d   1      33.605  13.565 -21.220  0.00  0.00     0.000 A 
ATOM     16  C   UNL d   1      34.486  13.506 -20.750  0.00  0.00     0.001 A 
ATOM     17  C   UNL d   1      34.670  14.088 -19.958  0.00  0.00     0.014 A 
ENDBRANCH   5  12
BRANCH   7  18
ATOM     18  O   UNL d   1      35.109  18.006 -16.588  0.00  0.00    -0.360 OA
ATOM     19  H   UNL d   1      34.733  18.493 -16.667  0.00  0.00     0.217 HD
ENDBRANCH   7  18
BRANCH  10  20
ATOM     20  O   UNL d   1      33.909  15.471 -14.428  0.00  0.00    -0.361 OA
ATOM     21  H   UNL d   1      33.783  14.871 -14.337  0.00  0.00     0.217 HD
ENDBRANCH  10  20
TORSDOF 3
ENDMDL
MODEL 3
REMARK VINA RESULT:    -7.567      2.008      4.674
REMARK INTER + INTRA:          -7.433
REMARK INTER:                  -8.434
REMARK INTRA:                   1.001
REMARK UNBOUND:                 1.018
REMARK  3 active torsions:
REMARK  status: ('A' for Active; 'I' for Inactive)
REMARK    1  A    between atoms: O_2  and  C_10 
REMARK    2  A    between atoms: O_4  and  C_13 
REMARK    3  A    between atoms: C_7  and  C_9 
ROOT
ATOM      1  O   UNL d   1      34.227  16.056 -19.314  0.00  0.00    -0.309 OA
ATOM      2  O   UNL d   1      36.653  14.340 -19.730  0.00  0.00    -0.287 OA
ATOM      3  C   UNL d   1      35.320  15.235 -20.379  0.00  0.00     0.081 A 
ATOM      4  C   UNL d   1      34.511  15.807 -20.240  0.00  0.00     0.095 A 
ATOM      5  C   UNL d   1      34.752  15.732 -18.527  0.00  0.00     0.090 A 
ATOM      6  C   UNL d   1      35.844  14.912 -19.591  0.00  0.00     0.190 A 
ATOM      7  C   UNL d   1      35.627  14.968 -21.337  0.00  0.00     0.085 A 
ATOM      8  C   UNL d   1      35.560  15.160 -18.665  0.00  0.00     0.094 A 
ATOM      9  C   UNL d   1      33.954  16.152 -21.051  0.00  0.00     0.075 A 
ATOM     10  C   UNL d   1      34.244  15.897 -22.018  0.00  0.00     0.071 A 
ATOM     11  C   UNL d   1      35.086  15.301 -22.163  0.00  0.00     0.074 A 
ENDROOT
BRANCH   5  12
ATOM     12  C   UNL d   1      34.468  15.981 -17.601  0.00  0.00    -0.002 A 
ATOM     13  C   UNL d   1      33.884  15.363 -17.074  0.00  0.00     0.014 A 
ATOM     14  C   UNL d   1      33.600  15.612 -16.148  0.00  0.00     0.001 A 
ATOM     15  C   UNL d   1      33.900  16.478 -15.749  0.00  0.00     0.000 A 
ATOM     16  C   UNL d   1      34.484  17.096 -16.276  0.00  0.00     0.001 A 
ATOM     17  C   UNL d   1      34.768  16.847 -17.202  0.00  0.00     0.014 A 
ENDBRANCH   5  12
BRANCH   7  18
ATOM     18  O   UNL d   1      36.437  14.396 -21.464  0.00  0.00    -0.360 OA
ATOM     19  H   UNL d   1      36.505  14.065 -21.984  0.00  0.00     0.217 HD
ENDBRANCH   7  18
BRANCH  10  20
ATOM     20  O   UNL d   1      33.717  16.222 -22.803  0.00  0.00    -0.361 OA
ATOM     21  H   UNL d   1      33.106  16.120 -22.830  0.00  0.00     0.217 HD
ENDBRANCH  10  20
TORSDOF 3
ENDMDL
MODEL 4
REMARK VINA RESULT:    -7.433     13.326     13.940
REMARK INTER + INTRA:          -7.284
REMARK INTER:                  -8.525
REMARK INTRA:                   1.240
REMARK UNBOUND:                 1.018
REMARK  3 active torsions:
REMARK  status: ('A' for Active; 'I' for Inactive)
REMARK    1  A    between atoms: O_2  and  C_10 
REMARK    2  A    between atoms: O_4  and  C_13 
REMARK    3  A    between atoms: C_7  and  C_9 
ROOT
ATOM      1  O   UNL d   1      25.467  25.655 -22.499  0.00  0.00    -0.309 OA
ATOM      2  O   UNL d   1      25.283  22.663 -22.380  0.00  0.00    -0.287 OA
ATOM      3  C   UNL d   1      24.826  24.219 -21.772  0.00  0.00     0.081 A 
ATOM      4  C   UNL d   1      24.887  25.217 -21.812  0.00  0.00     0.095 A 
ATOM      5  C   UNL d   1      25.985  25.096 -23.146  0.00  0.00     0.090 A 
ATOM      6  C   UNL d   1      25.344  23.660 -22.420  0.00  0.00     0.190 A 
ATOM      7  C   UNL d   1      24.227  23.749 -21.062  0.00  0.00     0.085 A 
ATOM      8  C   UNL d   1      25.924  24.099 -23.106  0.00  0.00     0.094 A 
ATOM      9  C   UNL d   1      24.353  25.812 -21.145  0.00  0.00     0.075 A 
ATOM     10  C   UNL d   1      23.748  25.363 -20.426  0.00  0.00     0.071 A 
ATOM     11  C   UNL d   1      23.684  24.324 -20.385  0.00  0.00     0.074 A 
ENDROOT
BRANCH   5  12
ATOM     12  C   UNL d   1      26.564  25.535 -23.833  0.00  0.00    -0.002 A 
ATOM     13  C   UNL d   1      27.462  25.150 -24.049  0.00  0.00     0.014 A 
ATOM     14  C   UNL d   1      28.041  25.589 -24.736  0.00  0.00     0.001 A 
ATOM     15  C   UNL d   1      27.723  26.412 -25.207  0.00  0.00     0.000 A 
ATOM     16  C   UNL d   1      26.826  26.796 -24.991  0.00  0.00     0.001 A 
ATOM     17  C   UNL d   1      26.246  26.358 -24.304  0.00  0.00     0.014 A 
ENDBRANCH   5  12
BRANCH   7  18
ATOM     18  O   UNL d   1      24.173  22.751 -21.032  0.00  0.00    -0.360 OA
ATOM     19  H   UNL d   1      24.362  22.416 -21.518  0.00  0.00     0.217 HD
ENDBRANCH   7  18
BRANCH  10  20
ATOM     20  O   UNL d   1      23.231  25.925 -19.781  0.00  0.00    -0.361 OA
ATOM     21  H   UNL d   1      23.235  25.786 -19.177  0.00  0.00     0.217 HD
ENDBRANCH  10  20
TORSDOF 3
ENDMDL
MODEL 5
REMARK VINA RESULT:    -7.070     22.828     24.262
REMARK INTER + INTRA:          -6.878
REMARK INTER:                  -7.879
REMARK INTRA:                   1.001
REMARK UNBOUND:                 1.018
REMARK  3 active torsions:
REMARK  status: ('A' for Active; 'I' for Inactive)
REMARK    1  A    between atoms: O_2  and  C_10 
REMARK    2  A    between atoms: O_4  and  C_13 
REMARK    3  A    between atoms: C_7  and  C_9 
ROOT
ATOM      1  O   UNL d   1      44.606  19.179   3.513  0.00  0.00    -0.309 OA
ATOM      2  O   UNL d   1      44.471  20.133   0.672  0.00  0.00    -0.287 OA
ATOM      3  C   UNL d   1      45.210  19.148   1.890  0.00  0.00     0.081 A 
ATOM      4  C   UNL d   1      45.256  18.830   2.837  0.00  0.00     0.095 A 
ATOM      5  C   UNL d   1      43.912  19.846   3.242  0.00  0.00     0.090 A 
ATOM      6  C   UNL d   1      44.516  19.815   1.619  0.00  0.00     0.190 A 
ATOM      7  C   UNL d   1      45.880  18.794   1.175  0.00  0.00     0.085 A 
ATOM      8  C   UNL d   1      43.867  20.164   2.295  0.00  0.00     0.094 A 
ATOM      9  C   UNL d   1      45.973  18.136   3.135  0.00  0.00     0.075 A 
ATOM     10  C   UNL d   1      46.653  17.769   2.436  0.00  0.00     0.071 A 
ATOM     11  C   UNL d   1      46.606  18.100   1.450  0.00  0.00     0.074 A 
ENDROOT
BRANCH   5  12
ATOM     12  C   UNL d   1      43.263  20.194   3.918  0.00  0.00    -0.002 A 
ATOM     13  C   UNL d   1      43.511  20.974   4.494  0.00  0.00     0.014 A 
ATOM     14  C   UNL d   1      42.862  21.323   5.170  0.00  0.00     0.001 A 
ATOM     15  C   UNL d   1      41.965  20.892   5.270  0.00  0.00     0.000 A 
ATOM     16  C   UNL d   1      41.717  20.112   4.695  0.00  0.00     0.001 A 
ATOM     17  C   UNL d   1      42.366  19.764   4.019  0.00  0.00     0.014 A 
ENDBRANCH   5  12
BRANCH   7  18
ATOM     18  O   UNL d   1      45.825  19.119   0.231  0.00  0.00    -0.360 OA
ATOM     19  H   UNL d   1      46.092  19.656   0.072  0.00  0.00     0.217 HD
ENDBRANCH   7  18
BRANCH  10  20
ATOM     20  O   UNL d   1      47.345  17.102   2.711  0.00  0.00    -0.361 OA
ATOM     21  H   UNL d   1      47.704  16.833   2.283  0.00  0.00     0.217 HD
ENDBRANCH  10  20
TORSDOF 3
ENDMDL
