MODEL 1
REMARK VINA RESULT:    -7.777      0.000      0.000
REMARK INTER + INTRA:          -7.529
REMARK INTER:                  -9.707
REMARK INTRA:                   2.178
REMARK UNBOUND:                 1.840
REMARK  5 active torsions:
REMARK  status: ('A' for Active; 'I' for Inactive)
REMARK    1  A    between atoms: O_2  and  C_13 
REMARK    2  A    between atoms: O_3  and  C_19 
REMARK    3  A    between atoms: O_5  and  C_17 
REMARK    4  A    between atoms: O_6  and  C_21 
REMARK    5  A    between atoms: C_8  and  C_10 
ROOT
ATOM      1  O   UNL d   1      33.000  14.434  -0.767  0.00  0.00    -0.309 OA
ATOM      2  O   UNL d   1      31.065  12.153  -0.543  0.00  0.00    -0.287 OA
ATOM      3  C   UNL d   1      31.463  13.728  -1.142  0.00  0.00     0.081 A 
ATOM      4  C   UNL d   1      33.246  13.619  -0.243  0.00  0.00     0.090 A 
ATOM      5  C   UNL d   1      32.108  14.489  -1.217  0.00  0.00     0.095 A 
ATOM      6  C   UNL d   1      31.710  12.913  -0.617  0.00  0.00     0.190 A 
ATOM      7  C   UNL d   1      32.601  12.859  -0.168  0.00  0.00     0.094 A 
ATOM      8  C   UNL d   1      30.531  13.771  -1.604  0.00  0.00     0.085 A 
ATOM      9  C   UNL d   1      31.866  15.345  -1.759  0.00  0.00     0.075 A 
ATOM     10  C   UNL d   1      30.939  15.409  -2.230  0.00  0.00     0.071 A 
ATOM     11  C   UNL d   1      30.267  14.617  -2.152  0.00  0.00     0.074 A 
ENDROOT
BRANCH   4  12
ATOM     12  C   UNL d   1      34.138  13.565   0.206  0.00  0.00     0.001 A 
ATOM     13  C   UNL d   1      34.407  14.263   0.870  0.00  0.00     0.054 A 
ATOM     14  C   UNL d   1      35.299  14.208   1.319  0.00  0.00     0.102 A 
ATOM     15  C   UNL d   1      35.921  13.455   1.105  0.00  0.00     0.099 A 
ATOM     16  C   UNL d   1      35.652  12.757   0.442  0.00  0.00     0.040 A 
ATOM     17  C   UNL d   1      34.760  12.812  -0.007  0.00  0.00     0.017 A 
BRANCH  14  18
ATOM     18  O   UNL d   1      35.568  14.907   1.982  0.00  0.00    -0.353 OA
ATOM     19  C   UNL d   1      35.024  15.048   2.809  0.00  0.00     0.210 C 
ENDBRANCH  14  18
BRANCH  15  20
ATOM     20  O   UNL d   1      36.813  13.401   1.555  0.00  0.00    -0.358 OA
ATOM     21  H   UNL d   1      36.979  12.882   1.851  0.00  0.00     0.217 HD
ENDBRANCH  15  20
ENDBRANCH   4  12
BRANCH   8  22
ATOM     22  O   UNL d   1      29.894  13.005  -1.523  0.00  0.00    -0.360 OA
ATOM     23  H   UNL d   1      30.086  12.467  -1.283  0.00  0.00     0.217 HD
ENDBRANCH   8  22
BRANCH  10  24
ATOM     24  O   UNL d   1      30.696  16.226  -2.754  0.00  0.00    -0.361 OA
ATOM     25  H   UNL d   1      31.116  16.491  -3.125  0.00  0.00     0.217 HD
ENDBRANCH  10  24
TORSDOF 5
ENDMDL
MODEL 2
REMARK VINA RESULT:    -7.593     38.863     40.893
REMARK INTER + INTRA:          -7.306
REMARK INTER:                  -9.154
REMARK INTRA:                   1.848
REMARK UNBOUND:                 1.840
REMARK  5 active torsions:
REMARK  status: ('A' for Active; 'I' for Inactive)
REMARK    1  A    between atoms: O_2  and  C_13 
REMARK    2  A    between atoms: O_3  and  C_19 
REMARK    3  A    between atoms: O_5  and  C_17 
REMARK    4  A    between atoms: O_6  and  C_21 
REMARK    5  A    between atoms: C_8  and  C_10 
ROOT
ATOM      1  O   UNL d   1      43.098 -20.630  17.512  0.00  0.00    -0.309 OA
ATOM      2  O   UNL d   1      42.248 -20.161  20.350  0.00  0.00    -0.287 OA
ATOM      3  C   UNL d   1      42.640 -19.543  18.780  0.00  0.00     0.081 A 
ATOM      4  C   UNL d   1      42.989 -21.404  18.135  0.00  0.00     0.090 A 
ATOM      5  C   UNL d   1      42.923 -19.700  17.834  0.00  0.00     0.095 A 
ATOM      6  C   UNL d   1      42.531 -20.318  19.404  0.00  0.00     0.190 A 
ATOM      7  C   UNL d   1      42.706 -21.248  19.082  0.00  0.00     0.094 A 
ATOM      8  C   UNL d   1      42.454 -18.580  19.130  0.00  0.00     0.085 A 
ATOM      9  C   UNL d   1      43.041 -18.903  17.173  0.00  0.00     0.075 A 
ATOM     10  C   UNL d   1      42.860 -17.932  17.501  0.00  0.00     0.071 A 
ATOM     11  C   UNL d   1      42.566 -17.769  18.486  0.00  0.00     0.074 A 
ENDROOT
BRANCH   4  12
ATOM     12  C   UNL d   1      43.164 -22.334  17.813  0.00  0.00     0.001 A 
ATOM     13  C   UNL d   1      42.435 -22.854  17.368  0.00  0.00     0.054 A 
ATOM     14  C   UNL d   1      42.609 -23.785  17.045  0.00  0.00     0.102 A 
ATOM     15  C   UNL d   1      43.513 -24.195  17.168  0.00  0.00     0.099 A 
ATOM     16  C   UNL d   1      44.242 -23.675  17.613  0.00  0.00     0.040 A 
ATOM     17  C   UNL d   1      44.067 -22.744  17.935  0.00  0.00     0.017 A 
BRANCH  14  18
ATOM     18  O   UNL d   1      41.880 -24.305  16.600  0.00  0.00    -0.353 OA
ATOM     19  C   UNL d   1      41.135 -23.825  16.138  0.00  0.00     0.210 C 
ENDBRANCH  14  18
BRANCH  15  20
ATOM     20  O   UNL d   1      43.688 -25.125  16.845  0.00  0.00    -0.358 OA
ATOM     21  H   UNL d   1      43.215 -25.518  16.761  0.00  0.00     0.217 HD
ENDBRANCH  15  20
ENDBRANCH   4  12
BRANCH   8  22
ATOM     22  O   UNL d   1      42.172 -18.436  20.079  0.00  0.00    -0.360 OA
ATOM     23  H   UNL d   1      42.219 -17.873  20.334  0.00  0.00     0.217 HD
ENDBRANCH   8  22
BRANCH  10  24
ATOM     24  O   UNL d   1      42.970 -17.160  16.874  0.00  0.00    -0.361 OA
ATOM     25  H   UNL d   1      42.565 -16.691  16.887  0.00  0.00     0.217 HD
ENDBRANCH  10  24
TORSDOF 5
ENDMDL
MODEL 3
REMARK VINA RESULT:    -7.418     13.823     15.357
REMARK INTER + INTRA:          -7.095
REMARK INTER:                  -8.929
REMARK INTRA:                   1.834
REMARK UNBOUND:                 1.840
REMARK  5 active torsions:
REMARK  status: ('A' for Active; 'I' for Inactive)
REMARK    1  A    between atoms: O_2  and  C_13 
REMARK    2  A    between atoms: O_3  and  C_19 
REMARK    3  A    between atoms: O_5  and  C_17 
REMARK    4  A    between atoms: O_6  and  C_21 
REMARK    5  A    between atoms: C_8  and  C_10 
ROOT
ATOM      1  O   UNL d   1      41.803   2.548   5.640  0.00  0.00    -0.309 OA
ATOM      2  O   UNL d   1      38.959   3.500   5.694  0.00  0.00    -0.287 OA
ATOM      3  C   UNL d   1      40.285   2.785   4.841  0.00  0.00     0.081 A 
ATOM      4  C   UNL d   1      41.425   2.946   6.476  0.00  0.00     0.090 A 
ATOM      5  C   UNL d   1      41.233   2.467   4.823  0.00  0.00     0.095 A 
ATOM      6  C   UNL d   1      39.907   3.183   5.676  0.00  0.00     0.190 A 
ATOM      7  C   UNL d   1      40.477   3.264   6.494  0.00  0.00     0.094 A 
ATOM      8  C   UNL d   1      39.680   2.707   3.997  0.00  0.00     0.085 A 
ATOM      9  C   UNL d   1      41.642   2.051   3.960  0.00  0.00     0.075 A 
ATOM     10  C   UNL d   1      41.054   1.963   3.104  0.00  0.00     0.071 A 
ATOM     11  C   UNL d   1      40.067   2.293   3.123  0.00  0.00     0.074 A 
ENDROOT
BRANCH   4  12
ATOM     12  C   UNL d   1      41.995   3.027   7.294  0.00  0.00     0.001 A 
ATOM     13  C   UNL d   1      42.487   3.878   7.478  0.00  0.00     0.054 A 
ATOM     14  C   UNL d   1      43.057   3.959   8.296  0.00  0.00     0.102 A 
ATOM     15  C   UNL d   1      43.135   3.189   8.929  0.00  0.00     0.099 A 
ATOM     16  C   UNL d   1      42.643   2.338   8.745  0.00  0.00     0.040 A 
ATOM     17  C   UNL d   1      42.073   2.257   7.927  0.00  0.00     0.017 A 
BRANCH  14  18
ATOM     18  O   UNL d   1      43.549   4.810   8.481  0.00  0.00    -0.353 OA
ATOM     19  C   UNL d   1      43.260   5.660   8.040  0.00  0.00     0.210 C 
ENDBRANCH  14  18
BRANCH  15  20
ATOM     20  O   UNL d   1      43.705   3.270   9.747  0.00  0.00    -0.358 OA
ATOM     21  H   UNL d   1      43.853   2.763  10.072  0.00  0.00     0.217 HD
ENDBRANCH  15  20
ENDBRANCH   4  12
BRANCH   8  22
ATOM     22  O   UNL d   1      38.733   3.027   4.026  0.00  0.00    -0.360 OA
ATOM     23  H   UNL d   1      38.568   3.469   4.429  0.00  0.00     0.217 HD
ENDBRANCH   8  22
BRANCH  10  24
ATOM     24  O   UNL d   1      41.436   1.564   2.270  0.00  0.00    -0.361 OA
ATOM     25  H   UNL d   1      41.434   1.889   1.742  0.00  0.00     0.217 HD
ENDBRANCH  10  24
TORSDOF 5
ENDMDL
MODEL 4
REMARK VINA RESULT:    -7.394     24.840     26.585
REMARK INTER + INTRA:          -7.067
REMARK INTER:                  -8.901
REMARK INTRA:                   1.834
REMARK UNBOUND:                 1.840
REMARK  5 active torsions:
REMARK  status: ('A' for Active; 'I' for Inactive)
REMARK    1  A    between atoms: O_2  and  C_13 
REMARK    2  A    between atoms: O_3  and  C_19 
REMARK    3  A    between atoms: O_5  and  C_17 
REMARK    4  A    between atoms: O_6  and  C_21 
REMARK    5  A    between atoms: C_8  and  C_10 
ROOT
ATOM      1  O   UNL d   1      43.639  -8.690  -7.999  0.00  0.00    -0.309 OA
ATOM      2  O   UNL d   1      44.825  -7.638  -5.452  0.00  0.00    -0.287 OA
ATOM      3  C   UNL d   1      43.490  -7.755  -6.549  0.00  0.00     0.081 A 
ATOM      4  C   UNL d   1      44.579  -8.924  -7.751  0.00  0.00     0.090 A 
ATOM      5  C   UNL d   1      43.094  -8.106  -7.398  0.00  0.00     0.095 A 
ATOM      6  C   UNL d   1      44.430  -7.989  -6.301  0.00  0.00     0.190 A 
ATOM      7  C   UNL d   1      44.975  -8.573  -6.902  0.00  0.00     0.094 A 
ATOM      8  C   UNL d   1      42.934  -7.145  -5.913  0.00  0.00     0.085 A 
ATOM      9  C   UNL d   1      42.116  -7.871  -7.670  0.00  0.00     0.075 A 
ATOM     10  C   UNL d   1      41.543  -7.262  -7.049  0.00  0.00     0.071 A 
ATOM     11  C   UNL d   1      41.954  -6.897  -6.165  0.00  0.00     0.074 A 
ENDROOT
BRANCH   4  12
ATOM     12  C   UNL d   1      45.124  -9.508  -8.353  0.00  0.00     0.001 A 
ATOM     13  C   UNL d   1      45.674  -9.101  -9.082  0.00  0.00     0.054 A 
ATOM     14  C   UNL d   1      46.219  -9.686  -9.683  0.00  0.00     0.102 A 
ATOM     15  C   UNL d   1      46.214 -10.677  -9.555  0.00  0.00     0.099 A 
ATOM     16  C   UNL d   1      45.664 -11.085  -8.826  0.00  0.00     0.040 A 
ATOM     17  C   UNL d   1      45.119 -10.500  -8.225  0.00  0.00     0.017 A 
BRANCH  14  18
ATOM     18  O   UNL d   1      46.769  -9.278 -10.412  0.00  0.00    -0.353 OA
ATOM     19  C   UNL d   1      46.565  -8.355 -10.736  0.00  0.00     0.210 C 
ENDBRANCH  14  18
BRANCH  15  20
ATOM     20  O   UNL d   1      46.759 -11.262 -10.156  0.00  0.00    -0.358 OA
ATOM     21  H   UNL d   1      46.815 -11.122 -10.757  0.00  0.00     0.217 HD
ENDBRANCH  15  20
ENDBRANCH   4  12
BRANCH   8  22
ATOM     22  O   UNL d   1      43.340  -6.800  -5.067  0.00  0.00    -0.360 OA
ATOM     23  H   UNL d   1      42.984  -6.710  -4.567  0.00  0.00     0.217 HD
ENDBRANCH   8  22
BRANCH  10  24
ATOM     24  O   UNL d   1      40.603  -7.031  -7.301  0.00  0.00    -0.361 OA
ATOM     25  H   UNL d   1      40.135  -7.179  -6.921  0.00  0.00     0.217 HD
ENDBRANCH  10  24
TORSDOF 5
ENDMDL
MODEL 5
REMARK VINA RESULT:    -7.331     25.258     27.018
REMARK INTER + INTRA:          -6.991
REMARK INTER:                  -8.955
REMARK INTRA:                   1.964
REMARK UNBOUND:                 1.840
REMARK  5 active torsions:
REMARK  status: ('A' for Active; 'I' for Inactive)
REMARK    1  A    between atoms: O_2  and  C_13 
REMARK    2  A    between atoms: O_3  and  C_19 
REMARK    3  A    between atoms: O_5  and  C_17 
REMARK    4  A    between atoms: O_6  and  C_21 
REMARK    5  A    between atoms: C_8  and  C_10 
ROOT
ATOM      1  O   UNL d   1      43.406 -10.141  -7.035  0.00  0.00    -0.309 OA
ATOM      2  O   UNL d   1      45.491 -10.000  -9.187  0.00  0.00    -0.287 OA
ATOM      3  C   UNL d   1      44.236 -10.870  -8.369  0.00  0.00     0.081 A 
ATOM      4  C   UNL d   1      43.966  -9.319  -7.136  0.00  0.00     0.090 A 
ATOM      5  C   UNL d   1      43.541 -10.917  -7.651  0.00  0.00     0.095 A 
ATOM      6  C   UNL d   1      44.796 -10.047  -8.470  0.00  0.00     0.190 A 
ATOM      7  C   UNL d   1      44.661  -9.272  -7.853  0.00  0.00     0.094 A 
ATOM      8  C   UNL d   1      44.388 -11.670  -9.018  0.00  0.00     0.085 A 
ATOM      9  C   UNL d   1      42.950 -11.767  -7.534  0.00  0.00     0.075 A 
ATOM     10  C   UNL d   1      43.085 -12.578  -8.172  0.00  0.00     0.071 A 
ATOM     11  C   UNL d   1      43.808 -12.529  -8.919  0.00  0.00     0.074 A 
ENDROOT
BRANCH   4  12
ATOM     12  C   UNL d   1      43.830  -8.543  -6.519  0.00  0.00     0.001 A 
ATOM     13  C   UNL d   1      42.940  -8.091  -6.472  0.00  0.00     0.054 A 
ATOM     14  C   UNL d   1      42.805  -7.315  -5.855  0.00  0.00     0.102 A 
ATOM     15  C   UNL d   1      43.560  -6.992  -5.285  0.00  0.00     0.099 A 
ATOM     16  C   UNL d   1      44.451  -7.445  -5.332  0.00  0.00     0.040 A 
ATOM     17  C   UNL d   1      44.586  -8.220  -5.949  0.00  0.00     0.017 A 
BRANCH  14  18
ATOM     18  O   UNL d   1      41.914  -6.863  -5.809  0.00  0.00    -0.353 OA
ATOM     19  C   UNL d   1      41.316  -6.852  -6.610  0.00  0.00     0.210 C 
ENDBRANCH  14  18
BRANCH  15  20
ATOM     20  O   UNL d   1      43.425  -6.217  -4.669  0.00  0.00    -0.358 OA
ATOM     21  H   UNL d   1      42.855  -5.993  -4.573  0.00  0.00     0.217 HD
ENDBRANCH  15  20
ENDBRANCH   4  12
BRANCH   8  22
ATOM     22  O   UNL d   1      45.086 -11.612  -9.732  0.00  0.00    -0.360 OA
ATOM     23  H   UNL d   1      45.637 -11.358  -9.607  0.00  0.00     0.217 HD
ENDBRANCH   8  22
BRANCH  10  24
ATOM     24  O   UNL d   1      42.522 -13.399  -8.068  0.00  0.00    -0.361 OA
ATOM     25  H   UNL d   1      41.931 -13.394  -8.253  0.00  0.00     0.217 HD
ENDBRANCH  10  24
TORSDOF 5
ENDMDL
