MODEL 1
REMARK VINA RESULT:    -6.478      0.000      0.000
REMARK INTER + INTRA:          -7.228
REMARK INTER:                  -8.214
REMARK INTRA:                   0.986
REMARK UNBOUND:                 0.954
REMARK  6 active torsions:
REMARK  status: ('A' for Active; 'I' for Inactive)
REMARK    1  A    between atoms: O_1  and  C_8 
REMARK    2  A    between atoms: O_2  and  C_9 
REMARK    3  A    between atoms: O_3  and  C_13 
REMARK    4  A    between atoms: C_5  and  C_11 
REMARK    5  A    between atoms: C_11  and  C_12 
REMARK    6  A    between atoms: C_12  and  C_13 
ROOT
ATOM      1  C   UNL d   1      31.682  14.431  -1.618  0.00  0.00    -0.033 A 
ATOM      2  C   UNL d   1      32.661  14.317  -1.452  0.00  0.00     0.050 A 
ATOM      3  C   UNL d   1      31.058  13.663  -1.474  0.00  0.00     0.014 A 
ATOM      4  C   UNL d   1      33.017  13.435  -1.142  0.00  0.00     0.099 A 
ATOM      5  C   UNL d   1      32.393  12.667  -0.998  0.00  0.00     0.098 A 
ATOM      6  C   UNL d   1      31.414  12.781  -1.165  0.00  0.00     0.040 A 
ENDROOT
BRANCH   1   7
ATOM      7  C   UNL d   1      31.326  15.313  -1.928  0.00  0.00     0.018 C 
BRANCH   7   8
ATOM      8  C   UNL d   1      31.696  15.739  -2.753  0.00  0.00     0.082 C 
BRANCH   8   9
ATOM      9  C   UNL d   1      31.237  16.530  -3.156  0.00  0.00     0.165 C 
ATOM     10  O   UNL d   1      30.703  16.424  -3.996  0.00  0.00    -0.647 OA
BRANCH   9  11
ATOM     11  O   UNL d   1      31.310  17.427  -2.721  0.00  0.00    -0.773 OA
ATOM     12  H   UNL d   1      30.971  17.556  -2.218  0.00  0.00     0.167 HD
ENDBRANCH   9  11
ENDBRANCH   8   9
ENDBRANCH   7   8
ENDBRANCH   1   7
BRANCH   4  13
ATOM     13  O   UNL d   1      33.996  13.322  -0.975  0.00  0.00    -0.358 OA
ATOM     14  H   UNL d   1      34.405  13.467  -1.418  0.00  0.00     0.217 HD
ENDBRANCH   4  13
BRANCH   5  15
ATOM     15  O   UNL d   1      32.749  11.785  -0.688  0.00  0.00    -0.358 OA
ATOM     16  H   UNL d   1      32.738  11.641  -0.085  0.00  0.00     0.217 HD
ENDBRANCH   5  15
TORSDOF 6
ENDMDL
MODEL 2
REMARK VINA RESULT:    -6.398      0.842      4.203
REMARK INTER + INTRA:          -7.127
REMARK INTER:                  -8.136
REMARK INTRA:                   1.009
REMARK UNBOUND:                 0.954
REMARK  6 active torsions:
REMARK  status: ('A' for Active; 'I' for Inactive)
REMARK    1  A    between atoms: O_1  and  C_8 
REMARK    2  A    between atoms: O_2  and  C_9 
REMARK    3  A    between atoms: O_3  and  C_13 
REMARK    4  A    between atoms: C_5  and  C_11 
REMARK    5  A    between atoms: C_11  and  C_12 
REMARK    6  A    between atoms: C_12  and  C_13 
ROOT
ATOM      1  C   UNL d   1      31.684  15.117  -1.907  0.00  0.00    -0.033 A 
ATOM      2  C   UNL d   1      31.318  15.891  -1.390  0.00  0.00     0.050 A 
ATOM      3  C   UNL d   1      31.842  15.203  -2.890  0.00  0.00     0.014 A 
ATOM      4  C   UNL d   1      31.110  16.751  -1.857  0.00  0.00     0.099 A 
ATOM      5  C   UNL d   1      31.268  16.836  -2.841  0.00  0.00     0.098 A 
ATOM      6  C   UNL d   1      31.634  16.062  -3.357  0.00  0.00     0.040 A 
ENDROOT
BRANCH   1   7
ATOM      7  C   UNL d   1      31.891  14.258  -1.440  0.00  0.00     0.018 C 
BRANCH   7   8
ATOM      8  C   UNL d   1      32.803  13.854  -1.517  0.00  0.00     0.082 C 
BRANCH   8   9
ATOM      9  C   UNL d   1      33.071  13.103  -0.914  0.00  0.00     0.165 C 
ATOM     10  O   UNL d   1      33.668  13.279  -0.131  0.00  0.00    -0.647 OA
BRANCH   9  11
ATOM     11  O   UNL d   1      32.741  12.176  -1.092  0.00  0.00    -0.773 OA
ATOM     12  H   UNL d   1      33.097  11.776  -1.404  0.00  0.00     0.167 HD
ENDBRANCH   9  11
ENDBRANCH   8   9
ENDBRANCH   7   8
ENDBRANCH   1   7
BRANCH   4  13
ATOM     13  O   UNL d   1      30.744  17.525  -1.340  0.00  0.00    -0.358 OA
ATOM     14  H   UNL d   1      30.428  17.426  -0.816  0.00  0.00     0.217 HD
ENDBRANCH   4  13
BRANCH   5  15
ATOM     15  O   UNL d   1      31.060  17.696  -3.308  0.00  0.00    -0.358 OA
ATOM     16  H   UNL d   1      31.515  18.096  -3.438  0.00  0.00     0.217 HD
ENDBRANCH   5  15
TORSDOF 6
ENDMDL
MODEL 3
REMARK VINA RESULT:    -6.026      6.824      8.159
REMARK INTER + INTRA:          -6.658
REMARK INTER:                  -7.614
REMARK INTRA:                   0.956
REMARK UNBOUND:                 0.954
REMARK  6 active torsions:
REMARK  status: ('A' for Active; 'I' for Inactive)
REMARK    1  A    between atoms: O_1  and  C_8 
REMARK    2  A    between atoms: O_2  and  C_9 
REMARK    3  A    between atoms: O_3  and  C_13 
REMARK    4  A    between atoms: C_5  and  C_11 
REMARK    5  A    between atoms: C_11  and  C_12 
REMARK    6  A    between atoms: C_12  and  C_13 
ROOT
ATOM      1  C   UNL d   1      38.074  16.817   1.169  0.00  0.00    -0.033 A 
ATOM      2  C   UNL d   1      38.773  16.217   0.778  0.00  0.00     0.050 A 
ATOM      3  C   UNL d   1      38.195  17.809   1.142  0.00  0.00     0.014 A 
ATOM      4  C   UNL d   1      39.592  16.609   0.360  0.00  0.00     0.099 A 
ATOM      5  C   UNL d   1      39.713  17.602   0.333  0.00  0.00     0.098 A 
ATOM      6  C   UNL d   1      39.015  18.201   0.724  0.00  0.00     0.040 A 
ENDROOT
BRANCH   1   7
ATOM      7  C   UNL d   1      37.255  16.424   1.586  0.00  0.00     0.018 C 
BRANCH   7   8
ATOM      8  C   UNL d   1      37.270  16.140   2.545  0.00  0.00     0.082 C 
BRANCH   8   9
ATOM      9  C   UNL d   1      36.497  15.634   2.928  0.00  0.00     0.165 C 
ATOM     10  O   UNL d   1      36.632  14.711   3.288  0.00  0.00    -0.647 OA
BRANCH   9  11
ATOM     11  O   UNL d   1      35.588  16.052   2.952  0.00  0.00    -0.773 OA
ATOM     12  H   UNL d   1      35.392  16.395   2.474  0.00  0.00     0.167 HD
ENDBRANCH   9  11
ENDBRANCH   8   9
ENDBRANCH   7   8
ENDBRANCH   1   7
BRANCH   4  13
ATOM     13  O   UNL d   1      40.290  16.010  -0.030  0.00  0.00    -0.358 OA
ATOM     14  H   UNL d   1      40.587  15.603   0.332  0.00  0.00     0.217 HD
ENDBRANCH   4  13
BRANCH   5  15
ATOM     15  O   UNL d   1      40.533  17.994  -0.084  0.00  0.00    -0.358 OA
ATOM     16  H   UNL d   1      41.015  18.155   0.271  0.00  0.00     0.217 HD
ENDBRANCH   5  15
TORSDOF 6
ENDMDL
MODEL 4
REMARK VINA RESULT:    -5.634     38.663     40.625
REMARK INTER + INTRA:          -6.162
REMARK INTER:                  -7.345
REMARK INTRA:                   1.183
REMARK UNBOUND:                 0.954
REMARK  6 active torsions:
REMARK  status: ('A' for Active; 'I' for Inactive)
REMARK    1  A    between atoms: O_1  and  C_8 
REMARK    2  A    between atoms: O_2  and  C_9 
REMARK    3  A    between atoms: O_3  and  C_13 
REMARK    4  A    between atoms: C_5  and  C_11 
REMARK    5  A    between atoms: C_11  and  C_12 
REMARK    6  A    between atoms: C_12  and  C_13 
ROOT
ATOM      1  C   UNL d   1      41.915 -19.478  17.570  0.00  0.00    -0.033 A 
ATOM      2  C   UNL d   1      42.815 -19.353  17.152  0.00  0.00     0.050 A 
ATOM      3  C   UNL d   1      41.368 -18.681  17.826  0.00  0.00     0.014 A 
ATOM      4  C   UNL d   1      43.167 -18.432  16.990  0.00  0.00     0.099 A 
ATOM      5  C   UNL d   1      42.620 -17.635  17.246  0.00  0.00     0.098 A 
ATOM      6  C   UNL d   1      41.720 -17.760  17.664  0.00  0.00     0.040 A 
ENDROOT
BRANCH   1   7
ATOM      7  C   UNL d   1      41.562 -20.400  17.731  0.00  0.00     0.018 C 
BRANCH   7   8
ATOM      8  C   UNL d   1      42.120 -21.197  17.498  0.00  0.00     0.082 C 
BRANCH   8   9
ATOM      9  C   UNL d   1      41.704 -22.105  17.465  0.00  0.00     0.165 C 
ATOM     10  O   UNL d   1      41.859 -22.754  18.210  0.00  0.00    -0.647 OA
BRANCH   9  11
ATOM     11  O   UNL d   1      41.133 -22.366  16.686  0.00  0.00    -0.773 OA
ATOM     12  H   UNL d   1      40.641 -22.734  16.772  0.00  0.00     0.167 HD
ENDBRANCH   9  11
ENDBRANCH   8   9
ENDBRANCH   7   8
ENDBRANCH   1   7
BRANCH   4  13
ATOM     13  O   UNL d   1      44.067 -18.307  16.572  0.00  0.00    -0.358 OA
ATOM     14  H   UNL d   1      44.252 -18.683  16.115  0.00  0.00     0.217 HD
ENDBRANCH   4  13
BRANCH   5  15
ATOM     15  O   UNL d   1      42.973 -16.713  17.085  0.00  0.00    -0.358 OA
ATOM     16  H   UNL d   1      43.372 -16.611  16.621  0.00  0.00     0.217 HD
ENDBRANCH   5  15
TORSDOF 6
ENDMDL
MODEL 5
REMARK VINA RESULT:    -5.517      3.994      5.588
REMARK INTER + INTRA:          -6.014
REMARK INTER:                  -7.012
REMARK INTRA:                   0.998
REMARK UNBOUND:                 0.954
REMARK  6 active torsions:
REMARK  status: ('A' for Active; 'I' for Inactive)
REMARK    1  A    between atoms: O_1  and  C_8 
REMARK    2  A    between atoms: O_2  and  C_9 
REMARK    3  A    between atoms: O_3  and  C_13 
REMARK    4  A    between atoms: C_5  and  C_11 
REMARK    5  A    between atoms: C_11  and  C_12 
REMARK    6  A    between atoms: C_12  and  C_13 
ROOT
ATOM      1  C   UNL d   1      35.452  14.213   1.457  0.00  0.00    -0.033 A 
ATOM      2  C   UNL d   1      34.522  14.543   1.298  0.00  0.00     0.050 A 
ATOM      3  C   UNL d   1      35.771  13.380   1.004  0.00  0.00     0.014 A 
ATOM      4  C   UNL d   1      33.911  14.041   0.686  0.00  0.00     0.099 A 
ATOM      5  C   UNL d   1      34.230  13.208   0.233  0.00  0.00     0.098 A 
ATOM      6  C   UNL d   1      35.160  12.878   0.392  0.00  0.00     0.040 A 
ENDROOT
BRANCH   1   7
ATOM      7  C   UNL d   1      36.063  14.715   2.069  0.00  0.00     0.018 C 
BRANCH   7   8
ATOM      8  C   UNL d   1      36.753  15.332   1.690  0.00  0.00     0.082 C 
BRANCH   8   9
ATOM      9  C   UNL d   1      37.272  15.934   2.297  0.00  0.00     0.165 C 
ATOM     10  O   UNL d   1      37.533  16.849   1.989  0.00  0.00    -0.647 OA
BRANCH   9  11
ATOM     11  O   UNL d   1      37.528  15.622   3.212  0.00  0.00    -0.773 OA
ATOM     12  H   UNL d   1      37.122  15.306   3.557  0.00  0.00     0.167 HD
ENDBRANCH   9  11
ENDBRANCH   8   9
ENDBRANCH   7   8
ENDBRANCH   1   7
BRANCH   4  13
ATOM     13  O   UNL d   1      32.980  14.371   0.527  0.00  0.00    -0.358 OA
ATOM     14  H   UNL d   1      32.663  14.639   0.987  0.00  0.00     0.217 HD
ENDBRANCH   4  13
BRANCH   5  15
ATOM     15  O   UNL d   1      33.619  12.706  -0.379  0.00  0.00    -0.358 OA
ATOM     16  H   UNL d   1      33.194  13.011  -0.712  0.00  0.00     0.217 HD
ENDBRANCH   5  15
TORSDOF 6
ENDMDL
