MODEL 1
REMARK VINA RESULT:    -8.227      0.000      0.000
REMARK INTER + INTRA:          -8.108
REMARK INTER:                  -9.107
REMARK INTRA:                   0.999
REMARK UNBOUND:                 1.080
REMARK  3 active torsions:
REMARK  status: ('A' for Active; 'I' for Inactive)
REMARK    1  A    between atoms: O_2  and  C_10 
REMARK    2  A    between atoms: O_4  and  C_13 
REMARK    3  A    between atoms: C_7  and  C_9 
ROOT
ATOM      1  O   UNL d   1       1.514  -0.681 -13.768  0.00  0.00    -0.309 OA
ATOM      2  O   UNL d   1       4.442  -0.071 -14.002  0.00  0.00    -0.287 OA
ATOM      3  C   UNL d   1       2.998  -0.150 -13.049  0.00  0.00     0.081 A 
ATOM      4  C   UNL d   1       2.022  -0.353 -12.971  0.00  0.00     0.095 A 
ATOM      5  C   UNL d   1       1.983  -0.805 -14.643  0.00  0.00     0.090 A 
ATOM      6  C   UNL d   1       3.466  -0.274 -13.924  0.00  0.00     0.190 A 
ATOM      7  C   UNL d   1       3.540   0.191 -12.228  0.00  0.00     0.085 A 
ATOM      8  C   UNL d   1       2.959  -0.602 -14.721  0.00  0.00     0.094 A 
ATOM      9  C   UNL d   1       1.520  -0.229 -12.066  0.00  0.00     0.075 A 
ATOM     10  C   UNL d   1       2.042   0.111 -11.232  0.00  0.00     0.071 A 
ATOM     11  C   UNL d   1       3.058   0.323 -11.313  0.00  0.00     0.074 A 
ENDROOT
BRANCH   5  12
ATOM     12  C   UNL d   1       1.475  -1.132 -15.439  0.00  0.00    -0.002 A 
ATOM     13  C   UNL d   1       1.022  -0.479 -16.047  0.00  0.00     0.014 A 
ATOM     14  C   UNL d   1       0.514  -0.807 -16.844  0.00  0.00     0.001 A 
ATOM     15  C   UNL d   1       0.460  -1.787 -17.033  0.00  0.00     0.000 A 
ATOM     16  C   UNL d   1       0.912  -2.440 -16.426  0.00  0.00     0.001 A 
ATOM     17  C   UNL d   1       1.420  -2.113 -15.629  0.00  0.00     0.014 A 
ENDBRANCH   5  12
BRANCH   7  18
ATOM     18  O   UNL d   1       4.515   0.392 -12.317  0.00  0.00    -0.360 OA
ATOM     19  H   UNL d   1       4.734   0.947 -12.150  0.00  0.00     0.217 HD
ENDBRANCH   7  18
BRANCH  10  20
ATOM     20  O   UNL d   1       1.570   0.234 -10.359  0.00  0.00    -0.361 OA
ATOM     21  H   UNL d   1       0.985   0.439 -10.350  0.00  0.00     0.217 HD
ENDBRANCH  10  20
TORSDOF 3
ENDMDL
MODEL 2
REMARK VINA RESULT:    -8.153     16.945     18.505
REMARK INTER + INTRA:          -8.026
REMARK INTER:                  -9.024
REMARK INTRA:                   0.998
REMARK UNBOUND:                 1.080
REMARK  3 active torsions:
REMARK  status: ('A' for Active; 'I' for Inactive)
REMARK    1  A    between atoms: O_2  and  C_10 
REMARK    2  A    between atoms: O_4  and  C_13 
REMARK    3  A    between atoms: C_7  and  C_9 
ROOT
ATOM      1  O   UNL d   1      -4.428   2.589   3.244  0.00  0.00    -0.309 OA
ATOM      2  O   UNL d   1      -4.721   4.530   0.976  0.00  0.00    -0.287 OA
ATOM      3  C   UNL d   1      -5.303   3.865   2.465  0.00  0.00     0.081 A 
ATOM      4  C   UNL d   1      -5.205   3.218   3.222  0.00  0.00     0.095 A 
ATOM      5  C   UNL d   1      -3.749   2.607   2.511  0.00  0.00     0.090 A 
ATOM      6  C   UNL d   1      -4.623   3.883   1.732  0.00  0.00     0.190 A 
ATOM      7  C   UNL d   1      -6.106   4.526   2.429  0.00  0.00     0.085 A 
ATOM      8  C   UNL d   1      -3.846   3.254   1.755  0.00  0.00     0.094 A 
ATOM      9  C   UNL d   1      -5.904   3.188   3.993  0.00  0.00     0.075 A 
ATOM     10  C   UNL d   1      -6.716   3.840   3.976  0.00  0.00     0.071 A 
ATOM     11  C   UNL d   1      -6.818   4.514   3.189  0.00  0.00     0.074 A 
ENDROOT
BRANCH   5  12
ATOM     12  C   UNL d   1      -2.972   1.978   2.533  0.00  0.00    -0.002 A 
ATOM     13  C   UNL d   1      -2.128   2.242   3.001  0.00  0.00     0.014 A 
ATOM     14  C   UNL d   1      -1.351   1.613   3.024  0.00  0.00     0.001 A 
ATOM     15  C   UNL d   1      -1.418   0.720   2.579  0.00  0.00     0.000 A 
ATOM     16  C   UNL d   1      -2.261   0.456   2.111  0.00  0.00     0.001 A 
ATOM     17  C   UNL d   1      -3.038   1.085   2.088  0.00  0.00     0.014 A 
ENDBRANCH   5  12
BRANCH   7  18
ATOM     18  O   UNL d   1      -6.194   5.169   1.667  0.00  0.00    -0.360 OA
ATOM     19  H   UNL d   1      -5.687   5.422   1.416  0.00  0.00     0.217 HD
ENDBRANCH   7  18
BRANCH  10  20
ATOM     20  O   UNL d   1      -7.394   3.819   4.712  0.00  0.00    -0.361 OA
ATOM     21  H   UNL d   1      -7.962   4.047   4.616  0.00  0.00     0.217 HD
ENDBRANCH  10  20
TORSDOF 3
ENDMDL
MODEL 3
REMARK VINA RESULT:    -7.726     16.985     18.855
REMARK INTER + INTRA:          -7.549
REMARK INTER:                  -8.550
REMARK INTRA:                   1.001
REMARK UNBOUND:                 1.080
REMARK  3 active torsions:
REMARK  status: ('A' for Active; 'I' for Inactive)
REMARK    1  A    between atoms: O_2  and  C_10 
REMARK    2  A    between atoms: O_4  and  C_13 
REMARK    3  A    between atoms: C_7  and  C_9 
ROOT
ATOM      1  O   UNL d   1      -4.111   2.627   2.797  0.00  0.00    -0.309 OA
ATOM      2  O   UNL d   1      -6.185   0.895   4.101  0.00  0.00    -0.287 OA
ATOM      3  C   UNL d   1      -5.732   2.395   3.363  0.00  0.00     0.081 A 
ATOM      4  C   UNL d   1      -5.041   2.972   2.928  0.00  0.00     0.095 A 
ATOM      5  C   UNL d   1      -3.873   1.705   3.101  0.00  0.00     0.090 A 
ATOM      6  C   UNL d   1      -5.493   1.472   3.666  0.00  0.00     0.190 A 
ATOM      7  C   UNL d   1      -6.704   2.740   3.505  0.00  0.00     0.085 A 
ATOM      8  C   UNL d   1      -4.564   1.127   3.536  0.00  0.00     0.094 A 
ATOM      9  C   UNL d   1      -5.274   3.935   2.606  0.00  0.00     0.075 A 
ATOM     10  C   UNL d   1      -6.240   4.301   2.739  0.00  0.00     0.071 A 
ATOM     11  C   UNL d   1      -6.959   3.700   3.191  0.00  0.00     0.074 A 
ENDROOT
BRANCH   5  12
ATOM     12  C   UNL d   1      -2.944   1.360   2.970  0.00  0.00    -0.002 A 
ATOM     13  C   UNL d   1      -2.236   1.561   3.647  0.00  0.00     0.014 A 
ATOM     14  C   UNL d   1      -1.306   1.216   3.516  0.00  0.00     0.001 A 
ATOM     15  C   UNL d   1      -1.085   0.670   2.708  0.00  0.00     0.000 A 
ATOM     16  C   UNL d   1      -1.793   0.469   2.031  0.00  0.00     0.001 A 
ATOM     17  C   UNL d   1      -2.722   0.814   2.162  0.00  0.00     0.014 A 
ENDBRANCH   5  12
BRANCH   7  18
ATOM     18  O   UNL d   1      -7.387   2.154   3.941  0.00  0.00    -0.360 OA
ATOM     19  H   UNL d   1      -7.287   1.544   3.988  0.00  0.00     0.217 HD
ENDBRANCH   7  18
BRANCH  10  20
ATOM     20  O   UNL d   1      -6.474   5.225   2.434  0.00  0.00    -0.361 OA
ATOM     21  H   UNL d   1      -6.968   5.514   2.673  0.00  0.00     0.217 HD
ENDBRANCH  10  20
TORSDOF 3
ENDMDL
MODEL 4
REMARK VINA RESULT:    -7.697      2.100      3.572
REMARK INTER + INTRA:          -7.516
REMARK INTER:                  -8.540
REMARK INTRA:                   1.024
REMARK UNBOUND:                 1.080
REMARK  3 active torsions:
REMARK  status: ('A' for Active; 'I' for Inactive)
REMARK    1  A    between atoms: O_2  and  C_10 
REMARK    2  A    between atoms: O_4  and  C_13 
REMARK    3  A    between atoms: C_7  and  C_9 
ROOT
ATOM      1  O   UNL d   1       3.874   0.103 -12.787  0.00  0.00    -0.309 OA
ATOM      2  O   UNL d   1       1.617   0.771 -14.648  0.00  0.00    -0.287 OA
ATOM      3  C   UNL d   1       2.196   0.445 -13.048  0.00  0.00     0.081 A 
ATOM      4  C   UNL d   1       2.948   0.223 -12.428  0.00  0.00     0.095 A 
ATOM      5  C   UNL d   1       4.047   0.206 -13.767  0.00  0.00     0.090 A 
ATOM      6  C   UNL d   1       2.370   0.548 -14.028  0.00  0.00     0.190 A 
ATOM      7  C   UNL d   1       1.227   0.573 -12.688  0.00  0.00     0.085 A 
ATOM      8  C   UNL d   1       3.295   0.429 -14.387  0.00  0.00     0.094 A 
ATOM      9  C   UNL d   1       2.784   0.112 -11.405  0.00  0.00     0.075 A 
ATOM     10  C   UNL d   1       1.822   0.236 -11.024  0.00  0.00     0.071 A 
ATOM     11  C   UNL d   1       1.039   0.467 -11.669  0.00  0.00     0.074 A 
ENDROOT
BRANCH   5  12
ATOM     12  C   UNL d   1       4.973   0.087 -14.126  0.00  0.00    -0.002 A 
ATOM     13  C   UNL d   1       5.630   0.838 -14.074  0.00  0.00     0.014 A 
ATOM     14  C   UNL d   1       6.556   0.719 -14.433  0.00  0.00     0.001 A 
ATOM     15  C   UNL d   1       6.824  -0.153 -14.844  0.00  0.00     0.000 A 
ATOM     16  C   UNL d   1       6.166  -0.904 -14.896  0.00  0.00     0.001 A 
ATOM     17  C   UNL d   1       5.241  -0.785 -14.537  0.00  0.00     0.014 A 
ENDBRANCH   5  12
BRANCH   7  18
ATOM     18  O   UNL d   1       0.483   0.795 -13.318  0.00  0.00    -0.360 OA
ATOM     19  H   UNL d   1       0.397   1.381 -13.502  0.00  0.00     0.217 HD
ENDBRANCH   7  18
BRANCH  10  20
ATOM     20  O   UNL d   1       1.653   0.132 -10.043  0.00  0.00    -0.361 OA
ATOM     21  H   UNL d   1       1.085   0.228  -9.815  0.00  0.00     0.217 HD
ENDBRANCH  10  20
TORSDOF 3
ENDMDL
MODEL 5
REMARK VINA RESULT:    -7.591     13.374     16.023
REMARK INTER + INTRA:          -7.398
REMARK INTER:                  -8.420
REMARK INTRA:                   1.022
REMARK UNBOUND:                 1.080
REMARK  3 active torsions:
REMARK  status: ('A' for Active; 'I' for Inactive)
REMARK    1  A    between atoms: O_2  and  C_10 
REMARK    2  A    between atoms: O_4  and  C_13 
REMARK    3  A    between atoms: C_7  and  C_9 
ROOT
ATOM      1  O   UNL d   1      11.912  -2.893  -1.995  0.00  0.00    -0.309 OA
ATOM      2  O   UNL d   1       9.265  -1.712  -1.223  0.00  0.00    -0.287 OA
ATOM      3  C   UNL d   1      10.192  -2.815  -2.184  0.00  0.00     0.081 A 
ATOM      4  C   UNL d   1      11.074  -3.208  -2.442  0.00  0.00     0.095 A 
ATOM      5  C   UNL d   1      11.867  -2.184  -1.291  0.00  0.00     0.090 A 
ATOM      6  C   UNL d   1      10.147  -2.106  -1.480  0.00  0.00     0.190 A 
ATOM      7  C   UNL d   1       9.311  -3.133  -2.640  0.00  0.00     0.085 A 
ATOM      8  C   UNL d   1      10.984  -1.791  -1.034  0.00  0.00     0.094 A 
ATOM      9  C   UNL d   1      11.137  -3.948  -3.173  0.00  0.00     0.075 A 
ATOM     10  C   UNL d   1      10.269  -4.281  -3.642  0.00  0.00     0.071 A 
ATOM     11  C   UNL d   1       9.350  -3.871  -3.374  0.00  0.00     0.074 A 
ENDROOT
BRANCH   5  12
ATOM     12  C   UNL d   1      12.704  -1.869  -0.845  0.00  0.00    -0.002 A 
ATOM     13  C   UNL d   1      12.917  -2.166   0.086  0.00  0.00     0.014 A 
ATOM     14  C   UNL d   1      13.754  -1.851   0.532  0.00  0.00     0.001 A 
ATOM     15  C   UNL d   1      14.379  -1.239   0.048  0.00  0.00     0.000 A 
ATOM     16  C   UNL d   1      14.167  -0.942  -0.883  0.00  0.00     0.001 A 
ATOM     17  C   UNL d   1      13.329  -1.257  -1.330  0.00  0.00     0.014 A 
ENDBRANCH   5  12
BRANCH   7  18
ATOM     18  O   UNL d   1       8.435  -2.732  -2.375  0.00  0.00    -0.360 OA
ATOM     19  H   UNL d   1       8.008  -3.080  -2.091  0.00  0.00     0.217 HD
ENDBRANCH   7  18
BRANCH  10  20
ATOM     20  O   UNL d   1      10.318  -4.990  -4.346  0.00  0.00    -0.361 OA
ATOM     21  H   UNL d   1      10.849  -5.295  -4.441  0.00  0.00     0.217 HD
ENDBRANCH  10  20
TORSDOF 3
ENDMDL
