MODEL 1
REMARK VINA RESULT:    -5.966      0.000      0.000
REMARK INTER + INTRA:          -6.483
REMARK INTER:                  -7.512
REMARK INTRA:                   1.029
REMARK UNBOUND:                 1.052
REMARK  6 active torsions:
REMARK  status: ('A' for Active; 'I' for Inactive)
REMARK    1  A    between atoms: O_1  and  C_8 
REMARK    2  A    between atoms: O_2  and  C_9 
REMARK    3  A    between atoms: O_3  and  C_13 
REMARK    4  A    between atoms: C_5  and  C_11 
REMARK    5  A    between atoms: C_11  and  C_12 
REMARK    6  A    between atoms: C_12  and  C_13 
ROOT
ATOM      1  C   UNL d   1      -2.912   1.775   2.076  0.00  0.00    -0.033 A 
ATOM      2  C   UNL d   1      -2.711   2.675   2.463  0.00  0.00     0.050 A 
ATOM      3  C   UNL d   1      -3.694   1.658   1.463  0.00  0.00     0.014 A 
ATOM      4  C   UNL d   1      -3.291   3.458   2.238  0.00  0.00     0.099 A 
ATOM      5  C   UNL d   1      -4.073   3.340   1.625  0.00  0.00     0.098 A 
ATOM      6  C   UNL d   1      -4.274   2.441   1.238  0.00  0.00     0.040 A 
ENDROOT
BRANCH   1   7
ATOM      7  C   UNL d   1      -2.332   0.993   2.301  0.00  0.00     0.018 C 
BRANCH   7   8
ATOM      8  C   UNL d   1      -2.255   0.684   3.249  0.00  0.00     0.082 C 
BRANCH   8   9
ATOM      9  C   UNL d   1      -1.713  -0.128   3.468  0.00  0.00     0.165 C 
ATOM     10  O   UNL d   1      -1.137  -0.139   4.286  0.00  0.00    -0.647 OA
BRANCH   9  11
ATOM     11  O   UNL d   1      -1.748  -0.928   2.870  0.00  0.00    -0.773 OA
ATOM     12  H   UNL d   1      -1.248  -1.290   2.807  0.00  0.00     0.167 HD
ENDBRANCH   9  11
ENDBRANCH   8   9
ENDBRANCH   7   8
ENDBRANCH   1   7
BRANCH   4  13
ATOM     13  O   UNL d   1      -3.090   4.357   2.625  0.00  0.00    -0.358 OA
ATOM     14  H   UNL d   1      -3.301   4.869   2.346  0.00  0.00     0.217 HD
ENDBRANCH   4  13
BRANCH   5  15
ATOM     15  O   UNL d   1      -4.653   4.123   1.400  0.00  0.00    -0.358 OA
ATOM     16  H   UNL d   1      -4.431   4.699   1.453  0.00  0.00     0.217 HD
ENDBRANCH   5  15
TORSDOF 6
ENDMDL
MODEL 2
REMARK VINA RESULT:    -5.919      1.254      1.741
REMARK INTER + INTRA:          -6.423
REMARK INTER:                  -7.373
REMARK INTRA:                   0.950
REMARK UNBOUND:                 1.052
REMARK  6 active torsions:
REMARK  status: ('A' for Active; 'I' for Inactive)
REMARK    1  A    between atoms: O_1  and  C_8 
REMARK    2  A    between atoms: O_2  and  C_9 
REMARK    3  A    between atoms: O_3  and  C_13 
REMARK    4  A    between atoms: C_5  and  C_11 
REMARK    5  A    between atoms: C_11  and  C_12 
REMARK    6  A    between atoms: C_12  and  C_13 
ROOT
ATOM      1  C   UNL d   1      -3.682   1.844   1.987  0.00  0.00    -0.033 A 
ATOM      2  C   UNL d   1      -4.605   1.644   2.315  0.00  0.00     0.050 A 
ATOM      3  C   UNL d   1      -3.420   2.785   1.774  0.00  0.00     0.014 A 
ATOM      4  C   UNL d   1      -5.266   2.385   2.431  0.00  0.00     0.099 A 
ATOM      5  C   UNL d   1      -5.004   3.327   2.218  0.00  0.00     0.098 A 
ATOM      6  C   UNL d   1      -4.081   3.526   1.890  0.00  0.00     0.040 A 
ENDROOT
BRANCH   1   7
ATOM      7  C   UNL d   1      -3.021   1.102   1.871  0.00  0.00     0.018 C 
BRANCH   7   8
ATOM      8  C   UNL d   1      -2.382   0.882   2.608  0.00  0.00     0.082 C 
BRANCH   8   9
ATOM      9  C   UNL d   1      -1.774   0.093   2.524  0.00  0.00     0.165 C 
ATOM     10  O   UNL d   1      -1.093   0.063   1.792  0.00  0.00    -0.647 OA
BRANCH   9  11
ATOM     11  O   UNL d   1      -1.846  -0.666   3.171  0.00  0.00    -0.773 OA
ATOM     12  H   UNL d   1      -1.844  -1.250   2.965  0.00  0.00     0.167 HD
ENDBRANCH   9  11
ENDBRANCH   8   9
ENDBRANCH   7   8
ENDBRANCH   1   7
BRANCH   4  13
ATOM     13  O   UNL d   1      -6.189   2.186   2.759  0.00  0.00    -0.358 OA
ATOM     14  H   UNL d   1      -6.517   1.727   2.501  0.00  0.00     0.217 HD
ENDBRANCH   4  13
BRANCH   5  15
ATOM     15  O   UNL d   1      -5.665   4.068   2.334  0.00  0.00    -0.358 OA
ATOM     16  H   UNL d   1      -6.152   3.993   2.710  0.00  0.00     0.217 HD
ENDBRANCH   5  15
TORSDOF 6
ENDMDL
MODEL 3
REMARK VINA RESULT:    -5.889     13.823     14.932
REMARK INTER + INTRA:          -6.386
REMARK INTER:                  -7.540
REMARK INTRA:                   1.154
REMARK UNBOUND:                 1.052
REMARK  6 active torsions:
REMARK  status: ('A' for Active; 'I' for Inactive)
REMARK    1  A    between atoms: O_1  and  C_8 
REMARK    2  A    between atoms: O_2  and  C_9 
REMARK    3  A    between atoms: O_3  and  C_13 
REMARK    4  A    between atoms: C_5  and  C_11 
REMARK    5  A    between atoms: C_11  and  C_12 
REMARK    6  A    between atoms: C_12  and  C_13 
ROOT
ATOM      1  C   UNL d   1      10.198  -2.499  -1.964  0.00  0.00    -0.033 A 
ATOM      2  C   UNL d   1       9.824  -1.796  -1.359  0.00  0.00     0.050 A 
ATOM      3  C   UNL d   1      11.155  -2.776  -1.878  0.00  0.00     0.014 A 
ATOM      4  C   UNL d   1      10.407  -1.371  -0.667  0.00  0.00     0.099 A 
ATOM      5  C   UNL d   1      11.364  -1.648  -0.580  0.00  0.00     0.098 A 
ATOM      6  C   UNL d   1      11.738  -2.350  -1.185  0.00  0.00     0.040 A 
ENDROOT
BRANCH   1   7
ATOM      7  C   UNL d   1       9.615  -2.925  -2.656  0.00  0.00     0.018 C 
BRANCH   7   8
ATOM      8  C   UNL d   1       9.962  -3.687  -3.202  0.00  0.00     0.082 C 
BRANCH   8   9
ATOM      9  C   UNL d   1       9.408  -4.064  -3.945  0.00  0.00     0.165 C 
ATOM     10  O   UNL d   1       9.543  -3.741  -4.882  0.00  0.00    -0.647 OA
BRANCH   9  11
ATOM     11  O   UNL d   1       8.720  -4.762  -3.751  0.00  0.00    -0.773 OA
ATOM     12  H   UNL d   1       8.840  -5.358  -3.874  0.00  0.00     0.167 HD
ENDBRANCH   9  11
ENDBRANCH   8   9
ENDBRANCH   7   8
ENDBRANCH   1   7
BRANCH   4  13
ATOM     13  O   UNL d   1      10.033  -0.668  -0.061  0.00  0.00    -0.358 OA
ATOM     14  H   UNL d   1      10.208  -0.077  -0.128  0.00  0.00     0.217 HD
ENDBRANCH   4  13
BRANCH   5  15
ATOM     15  O   UNL d   1      11.947  -1.222   0.112  0.00  0.00    -0.358 OA
ATOM     16  H   UNL d   1      11.734  -1.138   0.688  0.00  0.00     0.217 HD
ENDBRANCH   5  15
TORSDOF 6
ENDMDL
MODEL 4
REMARK VINA RESULT:    -5.760      1.703      4.210
REMARK INTER + INTRA:          -6.223
REMARK INTER:                  -7.243
REMARK INTRA:                   1.020
REMARK UNBOUND:                 1.052
REMARK  6 active torsions:
REMARK  status: ('A' for Active; 'I' for Inactive)
REMARK    1  A    between atoms: O_1  and  C_8 
REMARK    2  A    between atoms: O_2  and  C_9 
REMARK    3  A    between atoms: O_3  and  C_13 
REMARK    4  A    between atoms: C_5  and  C_11 
REMARK    5  A    between atoms: C_11  and  C_12 
REMARK    6  A    between atoms: C_12  and  C_13 
ROOT
ATOM      1  C   UNL d   1      -4.247   3.031   2.075  0.00  0.00    -0.033 A 
ATOM      2  C   UNL d   1      -3.332   3.118   2.470  0.00  0.00     0.050 A 
ATOM      3  C   UNL d   1      -4.522   2.176   1.634  0.00  0.00     0.014 A 
ATOM      4  C   UNL d   1      -2.693   2.350   2.424  0.00  0.00     0.099 A 
ATOM      5  C   UNL d   1      -2.969   1.495   1.984  0.00  0.00     0.098 A 
ATOM      6  C   UNL d   1      -3.883   1.409   1.589  0.00  0.00     0.040 A 
ENDROOT
BRANCH   1   7
ATOM      7  C   UNL d   1      -4.886   3.799   2.120  0.00  0.00     0.018 C 
BRANCH   7   8
ATOM      8  C   UNL d   1      -5.780   3.680   2.552  0.00  0.00     0.082 C 
BRANCH   8   9
ATOM      9  C   UNL d   1      -6.375   4.471   2.694  0.00  0.00     0.165 C 
ATOM     10  O   UNL d   1      -6.734   4.669   3.606  0.00  0.00    -0.647 OA
BRANCH   9  11
ATOM     11  O   UNL d   1      -6.611   5.064   1.925  0.00  0.00    -0.773 OA
ATOM     12  H   UNL d   1      -7.112   5.428   1.956  0.00  0.00     0.167 HD
ENDBRANCH   9  11
ENDBRANCH   8   9
ENDBRANCH   7   8
ENDBRANCH   1   7
BRANCH   4  13
ATOM     13  O   UNL d   1      -1.779   2.436   2.820  0.00  0.00    -0.358 OA
ATOM     14  H   UNL d   1      -1.601   2.973   3.075  0.00  0.00     0.217 HD
ENDBRANCH   4  13
BRANCH   5  15
ATOM     15  O   UNL d   1      -2.330   0.727   1.939  0.00  0.00    -0.358 OA
ATOM     16  H   UNL d   1      -2.434   0.217   2.274  0.00  0.00     0.217 HD
ENDBRANCH   5  15
TORSDOF 6
ENDMDL
MODEL 5
REMARK VINA RESULT:    -5.718     16.426     17.014
REMARK INTER + INTRA:          -6.170
REMARK INTER:                  -7.309
REMARK INTRA:                   1.139
REMARK UNBOUND:                 1.052
REMARK  6 active torsions:
REMARK  status: ('A' for Active; 'I' for Inactive)
REMARK    1  A    between atoms: O_1  and  C_8 
REMARK    2  A    between atoms: O_2  and  C_9 
REMARK    3  A    between atoms: O_3  and  C_13 
REMARK    4  A    between atoms: C_5  and  C_11 
REMARK    5  A    between atoms: C_11  and  C_12 
REMARK    6  A    between atoms: C_12  and  C_13 
ROOT
ATOM      1  C   UNL d   1       2.929  -0.083 -13.332  0.00  0.00    -0.033 A 
ATOM      2  C   UNL d   1       3.838   0.300 -13.169  0.00  0.00     0.050 A 
ATOM      3  C   UNL d   1       2.771  -0.677 -14.121  0.00  0.00     0.014 A 
ATOM      4  C   UNL d   1       4.589   0.090 -13.795  0.00  0.00     0.099 A 
ATOM      5  C   UNL d   1       4.431  -0.504 -14.584  0.00  0.00     0.098 A 
ATOM      6  C   UNL d   1       3.522  -0.887 -14.747  0.00  0.00     0.040 A 
ENDROOT
BRANCH   1   7
ATOM      7  C   UNL d   1       2.178   0.127 -12.706  0.00  0.00     0.018 C 
BRANCH   7   8
ATOM      8  C   UNL d   1       2.313   0.047 -11.719  0.00  0.00     0.082 C 
BRANCH   8   9
ATOM      9  C   UNL d   1       1.604   0.367 -11.090  0.00  0.00     0.165 C 
ATOM     10  O   UNL d   1       0.872   0.962 -11.422  0.00  0.00    -0.647 OA
BRANCH   9  11
ATOM     11  O   UNL d   1       1.627   0.091 -10.129  0.00  0.00    -0.773 OA
ATOM     12  H   UNL d   1       1.298  -0.398  -9.938  0.00  0.00     0.167 HD
ENDBRANCH   9  11
ENDBRANCH   8   9
ENDBRANCH   7   8
ENDBRANCH   1   7
BRANCH   4  13
ATOM     13  O   UNL d   1       5.498   0.473 -13.632  0.00  0.00    -0.358 OA
ATOM     14  H   UNL d   1       5.858   0.631 -14.111  0.00  0.00     0.217 HD
ENDBRANCH   4  13
BRANCH   5  15
ATOM     15  O   UNL d   1       5.182  -0.715 -15.210  0.00  0.00    -0.358 OA
ATOM     16  H   UNL d   1       5.435  -1.280 -15.211  0.00  0.00     0.217 HD
ENDBRANCH   5  15
TORSDOF 6
ENDMDL
