MODEL 1
REMARK VINA RESULT:    -7.451      0.000      0.000
REMARK INTER + INTRA:          -4.810
REMARK INTER:                  -8.277
REMARK INTRA:                   3.467
REMARK UNBOUND:                 3.731
REMARK  3 active torsions:
REMARK  status: ('A' for Active; 'I' for Inactive)
REMARK    1  A    between atoms: C_5  and  O_1 
REMARK    2  A    between atoms: C_6  and  O_2 
REMARK    3  A    between atoms: C_12  and  C_16 
ROOT
ATOM      1  O   UNL d   1      10.855  -4.164  -3.986  0.00  0.00    -0.288 OA
ATOM      2  C   UNL d   1      11.059  -2.221  -1.415  0.00  0.00     0.063 A 
ATOM      3  C   UNL d   1      10.106  -2.050  -1.662  0.00  0.00     0.088 A 
ATOM      4  C   UNL d   1      11.269  -1.671  -0.613  0.00  0.00     0.061 A 
ATOM      5  C   UNL d   1       9.735  -1.396  -1.012  0.00  0.00     0.046 A 
ATOM      6  C   UNL d   1      10.452  -1.162  -0.365  0.00  0.00     0.041 A 
ATOM      7  C   UNL d   1      11.720  -2.824  -1.860  0.00  0.00     0.053 A 
ATOM      8  C   UNL d   1       9.577  -2.440  -2.417  0.00  0.00    -0.046 A 
ATOM      9  C   UNL d   1      12.203  -2.029  -0.614  0.00  0.00     0.046 C 
ATOM     10  C   UNL d   1      11.592  -3.406  -2.663  0.00  0.00    -0.006 A 
ATOM     11  C   UNL d   1       9.873  -3.099  -3.109  0.00  0.00     0.060 A 
ATOM     12  C   UNL d   1       8.628  -2.132  -2.487  0.00  0.00     0.046 C 
ATOM     13  C   UNL d   1      10.769  -3.528  -3.219  0.00  0.00     0.178 A 
ENDROOT
BRANCH   4  14
ATOM     14  O   UNL d   1      11.759  -1.256   0.153  0.00  0.00    -0.390 OA
ATOM     15  H   UNL d   1      11.777  -0.639   0.212  0.00  0.00     0.210 HD
ENDBRANCH   4  14
BRANCH   3  16
ATOM     16  O   UNL d   1       9.152  -1.879  -1.910  0.00  0.00    -0.385 OA
ATOM     17  H   UNL d   1       8.698  -2.016  -1.511  0.00  0.00     0.211 HD
ENDBRANCH   3  16
BRANCH  10  18
ATOM     18  C   UNL d   1      12.391  -3.936  -2.947  0.00  0.00    -0.077 C 
ATOM     19  C   UNL d   1      12.548  -4.848  -2.567  0.00  0.00     0.043 C 
ATOM     20  C   UNL d   1      13.033  -3.553  -3.612  0.00  0.00     0.043 C 
ENDBRANCH  10  18
TORSDOF 3
ENDMDL
MODEL 2
REMARK VINA RESULT:    -7.443     13.993     15.969
REMARK INTER + INTRA:          -4.800
REMARK INTER:                  -8.275
REMARK INTRA:                   3.476
REMARK UNBOUND:                 3.731
REMARK  3 active torsions:
REMARK  status: ('A' for Active; 'I' for Inactive)
REMARK    1  A    between atoms: C_5  and  O_1 
REMARK    2  A    between atoms: C_6  and  O_2 
REMARK    3  A    between atoms: C_12  and  C_16 
ROOT
ATOM      1  O   UNL d   1      -1.655   0.628   4.640  0.00  0.00    -0.288 OA
ATOM      2  C   UNL d   1      -3.476   2.678   2.935  0.00  0.00     0.063 A 
ATOM      3  C   UNL d   1      -3.890   2.816   3.835  0.00  0.00     0.088 A 
ATOM      4  C   UNL d   1      -3.952   3.265   2.288  0.00  0.00     0.061 A 
ATOM      5  C   UNL d   1      -4.617   3.486   3.737  0.00  0.00     0.046 A 
ATOM      6  C   UNL d   1      -4.655   3.763   2.784  0.00  0.00     0.041 A 
ATOM      7  C   UNL d   1      -2.722   2.073   2.682  0.00  0.00     0.053 A 
ATOM      8  C   UNL d   1      -3.650   2.382   4.704  0.00  0.00    -0.046 A 
ATOM      9  C   UNL d   1      -3.363   2.930   1.553  0.00  0.00     0.046 C 
ATOM     10  C   UNL d   1      -2.194   1.456   3.265  0.00  0.00    -0.006 A 
ATOM     11  C   UNL d   1      -2.938   1.704   4.887  0.00  0.00     0.060 A 
ATOM     12  C   UNL d   1      -4.195   2.664   5.494  0.00  0.00     0.046 C 
ATOM     13  C   UNL d   1      -2.290   1.292   4.247  0.00  0.00     0.178 A 
ENDROOT
BRANCH   4  14
ATOM     14  O   UNL d   1      -4.225   3.722   1.442  0.00  0.00    -0.390 OA
ATOM     15  H   UNL d   1      -4.054   4.309   1.338  0.00  0.00     0.210 HD
ENDBRANCH   4  14
BRANCH   3  16
ATOM     16  O   UNL d   1      -4.303   2.953   4.735  0.00  0.00    -0.385 OA
ATOM     17  H   UNL d   1      -4.331   3.522   4.980  0.00  0.00     0.211 HD
ENDBRANCH   3  16
BRANCH  10  18
ATOM     18  C   UNL d   1      -1.474   0.935   2.806  0.00  0.00    -0.077 C 
ATOM     19  C   UNL d   1      -1.673   0.027   2.436  0.00  0.00     0.043 C 
ATOM     20  C   UNL d   1      -0.556   1.322   2.718  0.00  0.00     0.043 C 
ENDBRANCH  10  18
TORSDOF 3
ENDMDL
MODEL 3
REMARK VINA RESULT:    -7.439     15.647     17.887
REMARK INTER + INTRA:          -4.796
REMARK INTER:                  -8.379
REMARK INTRA:                   3.582
REMARK UNBOUND:                 3.731
REMARK  3 active torsions:
REMARK  status: ('A' for Active; 'I' for Inactive)
REMARK    1  A    between atoms: C_5  and  O_1 
REMARK    2  A    between atoms: C_6  and  O_2 
REMARK    3  A    between atoms: C_12  and  C_16 
ROOT
ATOM      1  O   UNL d   1      -7.314   2.495   3.936  0.00  0.00    -0.288 OA
ATOM      2  C   UNL d   1      -4.465   2.836   2.455  0.00  0.00     0.063 A 
ATOM      3  C   UNL d   1      -4.596   1.855   2.314  0.00  0.00     0.088 A 
ATOM      4  C   UNL d   1      -3.599   3.091   2.037  0.00  0.00     0.061 A 
ATOM      5  C   UNL d   1      -3.810   1.512   1.810  0.00  0.00     0.046 A 
ATOM      6  C   UNL d   1      -3.196   2.274   1.640  0.00  0.00     0.041 A 
ATOM      7  C   UNL d   1      -5.066   3.484   2.923  0.00  0.00     0.053 A 
ATOM      8  C   UNL d   1      -5.360   1.279   2.606  0.00  0.00    -0.046 A 
ATOM      9  C   UNL d   1      -3.743   4.039   2.321  0.00  0.00     0.046 C 
ATOM     10  C   UNL d   1      -5.945   3.312   3.366  0.00  0.00    -0.006 A 
ATOM     11  C   UNL d   1      -6.182   1.544   3.112  0.00  0.00     0.060 A 
ATOM     12  C   UNL d   1      -5.293   0.312   2.360  0.00  0.00     0.046 C 
ATOM     13  C   UNL d   1      -6.442   2.448   3.450  0.00  0.00     0.178 A 
ENDROOT
BRANCH   4  14
ATOM     14  O   UNL d   1      -2.816   3.629   1.726  0.00  0.00    -0.390 OA
ATOM     15  H   UNL d   1      -2.251   3.513   1.953  0.00  0.00     0.210 HD
ENDBRANCH   4  14
BRANCH   3  16
ATOM     16  O   UNL d   1      -4.727   0.874   2.172  0.00  0.00    -0.385 OA
ATOM     17  H   UNL d   1      -5.131   0.561   2.524  0.00  0.00     0.211 HD
ENDBRANCH   3  16
BRANCH  10  18
ATOM     18  C   UNL d   1      -6.386   4.108   3.779  0.00  0.00    -0.077 C 
ATOM     19  C   UNL d   1      -6.856   4.776   3.202  0.00  0.00     0.043 C 
ATOM     20  C   UNL d   1      -6.357   4.236   4.771  0.00  0.00     0.043 C 
ENDBRANCH  10  18
TORSDOF 3
ENDMDL
MODEL 4
REMARK VINA RESULT:    -7.371     16.127     18.152
REMARK INTER + INTRA:          -4.718
REMARK INTER:                  -8.213
REMARK INTRA:                   3.495
REMARK UNBOUND:                 3.731
REMARK  3 active torsions:
REMARK  status: ('A' for Active; 'I' for Inactive)
REMARK    1  A    between atoms: C_5  and  O_1 
REMARK    2  A    between atoms: C_6  and  O_2 
REMARK    3  A    between atoms: C_12  and  C_16 
ROOT
ATOM      1  O   UNL d   1      -3.769   1.112   3.188  0.00  0.00    -0.288 OA
ATOM      2  C   UNL d   1      -5.833   3.593   3.091  0.00  0.00     0.063 A 
ATOM      3  C   UNL d   1      -6.164   3.150   3.924  0.00  0.00     0.088 A 
ATOM      4  C   UNL d   1      -6.394   4.399   2.932  0.00  0.00     0.061 A 
ATOM      5  C   UNL d   1      -6.926   3.685   4.273  0.00  0.00     0.046 A 
ATOM      6  C   UNL d   1      -7.068   4.455   3.661  0.00  0.00     0.041 A 
ATOM      7  C   UNL d   1      -5.081   3.316   2.494  0.00  0.00     0.053 A 
ATOM      8  C   UNL d   1      -5.823   2.319   4.366  0.00  0.00    -0.046 A 
ATOM      9  C   UNL d   1      -5.865   4.603   2.109  0.00  0.00     0.046 C 
ATOM     10  C   UNL d   1      -4.473   2.527   2.581  0.00  0.00    -0.006 A 
ATOM     11  C   UNL d   1      -5.068   1.727   4.082  0.00  0.00     0.060 A 
ATOM     12  C   UNL d   1      -6.301   2.044   5.201  0.00  0.00     0.046 C 
ATOM     13  C   UNL d   1      -4.468   1.820   3.289  0.00  0.00     0.178 A 
ENDROOT
BRANCH   4  14
ATOM     14  O   UNL d   1      -6.767   5.233   2.525  0.00  0.00    -0.390 OA
ATOM     15  H   UNL d   1      -6.885   5.254   1.918  0.00  0.00     0.210 HD
ENDBRANCH   4  14
BRANCH   3  16
ATOM     16  O   UNL d   1      -6.494   2.706   4.758  0.00  0.00    -0.385 OA
ATOM     17  H   UNL d   1      -6.347   2.115   4.874  0.00  0.00     0.211 HD
ENDBRANCH   3  16
BRANCH  10  18
ATOM     18  C   UNL d   1      -3.780   2.432   1.867  0.00  0.00    -0.077 C 
ATOM     19  C   UNL d   1      -3.965   1.872   1.060  0.00  0.00     0.043 C 
ATOM     20  C   UNL d   1      -2.900   2.899   1.962  0.00  0.00     0.043 C 
ENDBRANCH  10  18
TORSDOF 3
ENDMDL
MODEL 5
REMARK VINA RESULT:    -7.286      1.053      2.515
REMARK INTER + INTRA:          -4.620
REMARK INTER:                  -8.110
REMARK INTRA:                   3.489
REMARK UNBOUND:                 3.731
REMARK  3 active torsions:
REMARK  status: ('A' for Active; 'I' for Inactive)
REMARK    1  A    between atoms: C_5  and  O_1 
REMARK    2  A    between atoms: C_6  and  O_2 
REMARK    3  A    between atoms: C_12  and  C_16 
ROOT
ATOM      1  O   UNL d   1      12.906  -3.419  -1.298  0.00  0.00    -0.288 OA
ATOM      2  C   UNL d   1      10.192  -2.665  -2.877  0.00  0.00     0.063 A 
ATOM      3  C   UNL d   1      10.034  -2.142  -2.039  0.00  0.00     0.088 A 
ATOM      4  C   UNL d   1       9.411  -2.523  -3.476  0.00  0.00     0.061 A 
ATOM      5  C   UNL d   1       9.157  -1.681  -2.128  0.00  0.00     0.046 A 
ATOM      6  C   UNL d   1       8.774  -1.916  -3.013  0.00  0.00     0.041 A 
ATOM      7  C   UNL d   1      10.975  -3.239  -3.114  0.00  0.00     0.053 A 
ATOM      8  C   UNL d   1      10.620  -2.065  -1.232  0.00  0.00    -0.046 A 
ATOM      9  C   UNL d   1       9.830  -3.118  -4.161  0.00  0.00     0.046 C 
ATOM     10  C   UNL d   1      11.793  -3.434  -2.574  0.00  0.00    -0.006 A 
ATOM     11  C   UNL d   1      11.509  -2.492  -1.064  0.00  0.00     0.060 A 
ATOM     12  C   UNL d   1      10.271  -1.484  -0.496  0.00  0.00     0.046 C 
ATOM     13  C   UNL d   1      12.031  -3.101  -1.661  0.00  0.00     0.178 A 
ENDROOT
BRANCH   4  14
ATOM     14  O   UNL d   1       8.794  -2.571  -4.261  0.00  0.00    -0.390 OA
ATOM     15  H   UNL d   1       8.418  -3.058  -4.330  0.00  0.00     0.210 HD
ENDBRANCH   4  14
BRANCH   3  16
ATOM     16  O   UNL d   1       9.876  -1.619  -1.201  0.00  0.00    -0.385 OA
ATOM     17  H   UNL d   1      10.250  -1.147  -1.055  0.00  0.00     0.211 HD
ENDBRANCH   3  16
BRANCH  10  18
ATOM     18  C   UNL d   1      12.462  -4.041  -3.003  0.00  0.00    -0.077 C 
ATOM     19  C   UNL d   1      12.405  -5.029  -2.859  0.00  0.00     0.043 C 
ATOM     20  C   UNL d   1      13.188  -3.659  -3.576  0.00  0.00     0.043 C 
ENDBRANCH  10  18
TORSDOF 3
ENDMDL
