MODEL 1
REMARK VINA RESULT:    -9.921      0.000      0.000
REMARK INTER + INTRA:          -2.278
REMARK INTER:                 -12.669
REMARK INTRA:                  10.391
REMARK UNBOUND:                10.544
REMARK  5 active torsions:
REMARK  status: ('A' for Active; 'I' for Inactive)
REMARK    1  A    between atoms: C_6  and  C_13 
REMARK    2  A    between atoms: C_13  and  C_19 
REMARK    3  A    between atoms: C_19  and  C_24 
REMARK    4  A    between atoms: C_24  and  C_25 
REMARK    5  A    between atoms: C_25  and  C_26 
ROOT
ATOM      1  O   UNL d   1       6.025  10.357   1.153  0.00  0.00    -0.293 OA
ATOM      2  C   UNL d   1       2.952  11.765  -4.041  0.00  0.00    -0.036 A 
ATOM      3  C   UNL d   1       3.951  11.814  -4.031  0.00  0.00    -0.002 A 
ATOM      4  C   UNL d   1       4.454  11.588  -3.197  0.00  0.00    -0.004 A 
ATOM      5  C   UNL d   1       3.959  11.313  -2.373  0.00  0.00     0.002 A 
ATOM      6  C   UNL d   1       2.645  12.023  -4.950  0.00  0.00    -0.002 A 
ATOM      7  C   UNL d   1       2.457  11.490  -3.217  0.00  0.00     0.010 A 
ATOM      8  C   UNL d   1       4.252  12.102  -4.934  0.00  0.00     0.006 A 
ATOM      9  C   UNL d   1       4.469  11.075  -1.496  0.00  0.00    -0.016 A 
ATOM     10  C   UNL d   1       2.960  11.265  -2.383  0.00  0.00     0.007 A 
ATOM     11  C   UNL d   1       3.445  12.231  -5.501  0.00  0.00     0.006 A 
ATOM     12  C   UNL d   1       5.495  11.643  -3.202  0.00  0.00     0.010 A 
ATOM     13  C   UNL d   1       1.954  11.716  -4.051  0.00  0.00     0.016 C 
ATOM     14  C   UNL d   1       5.510  11.124  -1.478  0.00  0.00    -0.068 A 
ATOM     15  C   UNL d   1       6.026  11.410  -2.336  0.00  0.00     0.035 A 
ATOM     16  C   UNL d   1       3.910  10.780  -0.615  0.00  0.00     0.022 A 
ATOM     17  C   UNL d   1       3.470  11.029  -1.514  0.00  0.00     0.020 C 
ATOM     18  C   UNL d   1       4.441  10.532   0.298  0.00  0.00     0.084 A 
ATOM     19  C   UNL d   1       6.063  10.881  -0.577  0.00  0.00     0.053 A 
ATOM     20  C   UNL d   1       5.525  10.583   0.317  0.00  0.00     0.149 A 
ENDROOT
BRANCH   6  21
ATOM     21  C   UNL d   1       1.694  12.067  -5.258  0.00  0.00    -0.014 C 
ATOM     22  C   UNL d   1       1.154  12.893  -5.096  0.00  0.00     0.010 C 
BRANCH  21  23
ATOM     23  C   UNL d   1       1.283  11.284  -5.726  0.00  0.00     0.005 C 
BRANCH  23  24
ATOM     24  C   UNL d   1       0.780  11.421  -6.580  0.00  0.00     0.005 C 
BRANCH  24  25
ATOM     25  C   UNL d   1       0.556  10.636  -7.158  0.00  0.00    -0.015 C 
ATOM     26  C   UNL d   1       0.004   9.887  -6.792  0.00  0.00     0.010 C 
BRANCH  25  27
ATOM     27  C   UNL d   1       0.883  10.602  -8.102  0.00  0.00    -0.019 C 
ATOM     28  C   UNL d   1       0.636  11.328  -8.743  0.00  0.00     0.010 C 
ATOM     29  C   UNL d   1       1.459   9.842  -8.405  0.00  0.00     0.010 C 
ENDBRANCH  25  27
ENDBRANCH  24  25
ENDBRANCH  23  24
ENDBRANCH  21  23
ENDBRANCH   6  21
TORSDOF 5
ENDMDL
MODEL 2
REMARK VINA RESULT:    -9.840     15.370     19.520
REMARK INTER + INTRA:          -2.173
REMARK INTER:                 -12.960
REMARK INTRA:                  10.787
REMARK UNBOUND:                10.544
REMARK  5 active torsions:
REMARK  status: ('A' for Active; 'I' for Inactive)
REMARK    1  A    between atoms: C_6  and  C_13 
REMARK    2  A    between atoms: C_13  and  C_19 
REMARK    3  A    between atoms: C_19  and  C_24 
REMARK    4  A    between atoms: C_24  and  C_25 
REMARK    5  A    between atoms: C_25  and  C_26 
ROOT
ATOM      1  O   UNL d   1      -0.782  -7.685 -18.194  0.00  0.00    -0.293 OA
ATOM      2  C   UNL d   1       1.024  -2.124 -16.140  0.00  0.00    -0.036 A 
ATOM      3  C   UNL d   1       0.213  -2.195 -16.721  0.00  0.00    -0.002 A 
ATOM      4  C   UNL d   1      -0.085  -3.089 -17.057  0.00  0.00    -0.004 A 
ATOM      5  C   UNL d   1       0.428  -3.911 -16.811  0.00  0.00     0.002 A 
ATOM      6  C   UNL d   1       1.153  -1.165 -15.914  0.00  0.00    -0.002 A 
ATOM      7  C   UNL d   1       1.536  -2.946 -15.894  0.00  0.00     0.010 A 
ATOM      8  C   UNL d   1      -0.151  -1.279 -16.849  0.00  0.00     0.006 A 
ATOM      9  C   UNL d   1       0.130  -4.849 -17.153  0.00  0.00    -0.016 A 
ATOM     10  C   UNL d   1       1.239  -3.840 -16.230  0.00  0.00     0.007 A 
ATOM     11  C   UNL d   1       0.429  -0.643 -16.351  0.00  0.00     0.006 A 
ATOM     12  C   UNL d   1      -0.932  -3.147 -17.661  0.00  0.00     0.010 A 
ATOM     13  C   UNL d   1       1.834  -2.053 -15.559  0.00  0.00     0.016 C 
ATOM     14  C   UNL d   1      -0.714  -4.931 -17.759  0.00  0.00    -0.068 A 
ATOM     15  C   UNL d   1      -1.248  -4.074 -18.015  0.00  0.00     0.035 A 
ATOM     16  C   UNL d   1       0.702  -5.728 -16.873  0.00  0.00     0.022 A 
ATOM     17  C   UNL d   1       0.939  -4.770 -16.571  0.00  0.00     0.020 C 
ATOM     18  C   UNL d   1       0.391  -6.704 -17.229  0.00  0.00     0.084 A 
ATOM     19  C   UNL d   1      -1.044  -5.897 -18.127  0.00  0.00     0.053 A 
ATOM     20  C   UNL d   1      -0.487  -6.789 -17.860  0.00  0.00     0.149 A 
ENDROOT
BRANCH   6  21
ATOM     21  C   UNL d   1       1.885  -0.789 -15.345  0.00  0.00    -0.014 C 
ATOM     22  C   UNL d   1       2.799  -0.660 -15.729  0.00  0.00     0.010 C 
BRANCH  21  23
ATOM     23  C   UNL d   1       1.703  -0.543 -14.393  0.00  0.00     0.005 C 
BRANCH  23  24
ATOM     24  C   UNL d   1       2.432  -0.156 -13.829  0.00  0.00     0.005 C 
BRANCH  24  25
ATOM     25  C   UNL d   1       2.216   0.240 -12.936  0.00  0.00    -0.015 C 
ATOM     26  C   UNL d   1       1.345   0.711 -12.796  0.00  0.00     0.010 C 
BRANCH  25  27
ATOM     27  C   UNL d   1       2.870   0.163 -12.184  0.00  0.00    -0.019 C 
ATOM     28  C   UNL d   1       3.851   0.248 -12.366  0.00  0.00     0.010 C 
ATOM     29  C   UNL d   1       2.546   0.003 -11.252  0.00  0.00     0.010 C 
ENDBRANCH  25  27
ENDBRANCH  24  25
ENDBRANCH  23  24
ENDBRANCH  21  23
ENDBRANCH   6  21
TORSDOF 5
ENDMDL
MODEL 3
REMARK VINA RESULT:    -9.512      2.250      6.718
REMARK INTER + INTRA:          -1.749
REMARK INTER:                 -12.054
REMARK INTRA:                  10.305
REMARK UNBOUND:                10.544
REMARK  5 active torsions:
REMARK  status: ('A' for Active; 'I' for Inactive)
REMARK    1  A    between atoms: C_6  and  C_13 
REMARK    2  A    between atoms: C_13  and  C_19 
REMARK    3  A    between atoms: C_19  and  C_24 
REMARK    4  A    between atoms: C_24  and  C_25 
REMARK    5  A    between atoms: C_25  and  C_26 
ROOT
ATOM      1  O   UNL d   1       1.543  12.528  -7.022  0.00  0.00    -0.293 OA
ATOM      2  C   UNL d   1       4.381  11.091  -1.703  0.00  0.00    -0.036 A 
ATOM      3  C   UNL d   1       4.919  11.446  -2.468  0.00  0.00    -0.002 A 
ATOM      4  C   UNL d   1       4.468  11.681  -3.330  0.00  0.00    -0.004 A 
ATOM      5  C   UNL d   1       3.480  11.560  -3.426  0.00  0.00     0.002 A 
ATOM      6  C   UNL d   1       5.003  10.922  -0.947  0.00  0.00    -0.002 A 
ATOM      7  C   UNL d   1       3.393  10.971  -1.800  0.00  0.00     0.010 A 
ATOM      8  C   UNL d   1       5.868  11.493  -2.178  0.00  0.00     0.006 A 
ATOM      9  C   UNL d   1       2.997  11.799  -4.317  0.00  0.00    -0.016 A 
ATOM     10  C   UNL d   1       2.943  11.205  -2.661  0.00  0.00     0.007 A 
ATOM     11  C   UNL d   1       5.921  11.169  -1.240  0.00  0.00     0.006 A 
ATOM     12  C   UNL d   1       5.041  12.049  -4.118  0.00  0.00     0.010 A 
ATOM     13  C   UNL d   1       3.844  10.737  -0.938  0.00  0.00     0.016 C 
ATOM     14  C   UNL d   1       3.550  12.170  -5.119  0.00  0.00    -0.068 A 
ATOM     15  C   UNL d   1       4.579  12.295  -5.019  0.00  0.00     0.035 A 
ATOM     16  C   UNL d   1       1.924  11.660  -4.399  0.00  0.00     0.022 A 
ATOM     17  C   UNL d   1       2.466  11.444  -3.548  0.00  0.00     0.020 C 
ATOM     18  C   UNL d   1       1.420  11.909  -5.327  0.00  0.00     0.084 A 
ATOM     19  C   UNL d   1       3.069  12.426  -6.057  0.00  0.00     0.053 A 
ATOM     20  C   UNL d   1       1.997  12.295  -6.161  0.00  0.00     0.149 A 
ENDROOT
BRANCH   6  21
ATOM     21  C   UNL d   1       4.751  10.564  -0.048  0.00  0.00    -0.014 C 
ATOM     22  C   UNL d   1       4.744   9.577   0.113  0.00  0.00     0.010 C 
BRANCH  21  23
ATOM     23  C   UNL d   1       4.505  11.193   0.690  0.00  0.00     0.005 C 
BRANCH  23  24
ATOM     24  C   UNL d   1       4.847  11.035   1.616  0.00  0.00     0.005 C 
BRANCH  24  25
ATOM     25  C   UNL d   1       4.803  11.767   2.297  0.00  0.00    -0.015 C 
ATOM     26  C   UNL d   1       4.022  12.391   2.309  0.00  0.00     0.010 C 
BRANCH  25  27
ATOM     27  C   UNL d   1       5.539  11.873   2.964  0.00  0.00    -0.019 C 
ATOM     28  C   UNL d   1       5.523  11.345   3.814  0.00  0.00     0.010 C 
ATOM     29  C   UNL d   1       6.292  12.507   2.783  0.00  0.00     0.010 C 
ENDBRANCH  25  27
ENDBRANCH  24  25
ENDBRANCH  23  24
ENDBRANCH  21  23
ENDBRANCH   6  21
TORSDOF 5
ENDMDL
MODEL 4
REMARK VINA RESULT:    -9.510      1.158      1.886
REMARK INTER + INTRA:          -1.746
REMARK INTER:                 -12.118
REMARK INTRA:                  10.372
REMARK UNBOUND:                10.544
REMARK  5 active torsions:
REMARK  status: ('A' for Active; 'I' for Inactive)
REMARK    1  A    between atoms: C_6  and  C_13 
REMARK    2  A    between atoms: C_13  and  C_19 
REMARK    3  A    between atoms: C_19  and  C_24 
REMARK    4  A    between atoms: C_24  and  C_25 
REMARK    5  A    between atoms: C_25  and  C_26 
ROOT
ATOM      1  O   UNL d   1       6.169  10.553   1.263  0.00  0.00    -0.293 OA
ATOM      2  C   UNL d   1       2.970  11.646  -3.931  0.00  0.00    -0.036 A 
ATOM      3  C   UNL d   1       3.963  11.770  -3.928  0.00  0.00    -0.002 A 
ATOM      4  C   UNL d   1       4.486  11.596  -3.094  0.00  0.00    -0.004 A 
ATOM      5  C   UNL d   1       4.017  11.298  -2.263  0.00  0.00     0.002 A 
ATOM      6  C   UNL d   1       2.639  11.867  -4.841  0.00  0.00    -0.002 A 
ATOM      7  C   UNL d   1       2.501  11.349  -3.100  0.00  0.00     0.010 A 
ATOM      8  C   UNL d   1       4.236  12.065  -4.837  0.00  0.00     0.006 A 
ATOM      9  C   UNL d   1       4.548  11.112  -1.386  0.00  0.00    -0.016 A 
ATOM     10  C   UNL d   1       3.025  11.174  -2.265  0.00  0.00     0.007 A 
ATOM     11  C   UNL d   1       3.419  12.125  -5.401  0.00  0.00     0.006 A 
ATOM     12  C   UNL d   1       5.519  11.729  -3.107  0.00  0.00     0.010 A 
ATOM     13  C   UNL d   1       1.978  11.523  -3.934  0.00  0.00     0.016 C 
ATOM     14  C   UNL d   1       5.583  11.239  -1.376  0.00  0.00    -0.068 A 
ATOM     15  C   UNL d   1       6.072  11.549  -2.242  0.00  0.00     0.035 A 
ATOM     16  C   UNL d   1       4.018  10.790  -0.496  0.00  0.00     0.022 A 
ATOM     17  C   UNL d   1       3.556  10.991  -1.397  0.00  0.00     0.020 C 
ATOM     18  C   UNL d   1       4.571  10.597   0.417  0.00  0.00     0.084 A 
ATOM     19  C   UNL d   1       6.158  11.052  -0.475  0.00  0.00     0.053 A 
ATOM     20  C   UNL d   1       5.648  10.728   0.427  0.00  0.00     0.149 A 
ENDROOT
BRANCH   6  21
ATOM     21  C   UNL d   1       1.686  11.834  -5.143  0.00  0.00    -0.014 C 
ATOM     22  C   UNL d   1       1.295  10.974  -5.471  0.00  0.00     0.010 C 
BRANCH  21  23
ATOM     23  C   UNL d   1       1.124  12.662  -5.116  0.00  0.00     0.005 C 
BRANCH  23  24
ATOM     24  C   UNL d   1       0.370  12.774  -5.763  0.00  0.00     0.005 C 
BRANCH  24  25
ATOM     25  C   UNL d   1      -0.226  13.575  -5.701  0.00  0.00    -0.015 C 
ATOM     26  C   UNL d   1      -0.001  14.317  -5.070  0.00  0.00     0.010 C 
BRANCH  25  27
ATOM     27  C   UNL d   1      -1.046  13.633  -6.270  0.00  0.00    -0.019 C 
ATOM     28  C   UNL d   1      -1.917  13.277  -5.928  0.00  0.00     0.010 C 
ATOM     29  C   UNL d   1      -0.997  14.045  -7.180  0.00  0.00     0.010 C 
ENDBRANCH  25  27
ENDBRANCH  24  25
ENDBRANCH  23  24
ENDBRANCH  21  23
ENDBRANCH   6  21
TORSDOF 5
ENDMDL
MODEL 5
REMARK VINA RESULT:    -9.495      2.355      6.430
REMARK INTER + INTRA:          -1.727
REMARK INTER:                 -12.513
REMARK INTRA:                  10.787
REMARK UNBOUND:                10.544
REMARK  5 active torsions:
REMARK  status: ('A' for Active; 'I' for Inactive)
REMARK    1  A    between atoms: C_6  and  C_13 
REMARK    2  A    between atoms: C_13  and  C_19 
REMARK    3  A    between atoms: C_19  and  C_24 
REMARK    4  A    between atoms: C_24  and  C_25 
REMARK    5  A    between atoms: C_25  and  C_26 
ROOT
ATOM      1  O   UNL d   1       0.205  11.570  -8.879  0.00  0.00    -0.293 OA
ATOM      2  C   UNL d   1       3.120  11.580  -3.410  0.00  0.00    -0.036 A 
ATOM      3  C   UNL d   1       3.621  11.838  -4.236  0.00  0.00    -0.002 A 
ATOM      4  C   UNL d   1       3.158  11.839  -5.122  0.00  0.00    -0.004 A 
ATOM      5  C   UNL d   1       2.194  11.582  -5.183  0.00  0.00     0.002 A 
ATOM      6  C   UNL d   1       3.747  11.642  -2.642  0.00  0.00    -0.002 A 
ATOM      7  C   UNL d   1       2.156  11.323  -3.470  0.00  0.00     0.010 A 
ATOM      8  C   UNL d   1       4.554  12.057  -3.971  0.00  0.00     0.006 A 
ATOM      9  C   UNL d   1       1.698  11.578  -6.099  0.00  0.00    -0.016 A 
ATOM     10  C   UNL d   1       1.692  11.324  -4.357  0.00  0.00     0.007 A 
ATOM     11  C   UNL d   1       4.632  11.936  -2.987  0.00  0.00     0.006 A 
ATOM     12  C   UNL d   1       3.694  12.110  -5.974  0.00  0.00     0.010 A 
ATOM     13  C   UNL d   1       2.619  11.322  -2.584  0.00  0.00     0.016 C 
ATOM     14  C   UNL d   1       2.213  11.846  -6.964  0.00  0.00    -0.068 A 
ATOM     15  C   UNL d   1       3.218  12.114  -6.901  0.00  0.00     0.035 A 
ATOM     16  C   UNL d   1       0.651  11.295  -6.139  0.00  0.00     0.022 A 
ATOM     17  C   UNL d   1       1.203  11.321  -5.268  0.00  0.00     0.020 C 
ATOM     18  C   UNL d   1       0.134  11.291  -7.094  0.00  0.00     0.084 A 
ATOM     19  C   UNL d   1       1.718  11.849  -7.929  0.00  0.00     0.053 A 
ATOM     20  C   UNL d   1       0.671  11.570  -7.994  0.00  0.00     0.149 A 
ENDROOT
BRANCH   6  21
ATOM     21  C   UNL d   1       3.527  11.442  -1.687  0.00  0.00    -0.014 C 
ATOM     22  C   UNL d   1       2.822  11.972  -1.215  0.00  0.00     0.010 C 
BRANCH  21  23
ATOM     23  C   UNL d   1       4.012  10.713  -1.203  0.00  0.00     0.005 C 
BRANCH  23  24
ATOM     24  C   UNL d   1       4.126  10.762  -0.211  0.00  0.00     0.005 C 
BRANCH  24  25
ATOM     25  C   UNL d   1       4.886  10.281   0.229  0.00  0.00    -0.015 C 
ATOM     26  C   UNL d   1       5.250   9.445  -0.179  0.00  0.00     0.010 C 
BRANCH  25  27
ATOM     27  C   UNL d   1       5.279  10.639   1.075  0.00  0.00    -0.019 C 
ATOM     28  C   UNL d   1       4.735  10.646   1.915  0.00  0.00     0.010 C 
ATOM     29  C   UNL d   1       6.216  10.990   1.083  0.00  0.00     0.010 C 
ENDBRANCH  25  27
ENDBRANCH  24  25
ENDBRANCH  23  24
ENDBRANCH  21  23
ENDBRANCH   6  21
TORSDOF 5
ENDMDL
