MODEL 1
REMARK VINA RESULT:    -8.918      0.000      0.000
REMARK INTER + INTRA:          -4.326
REMARK INTER:                 -14.346
REMARK INTRA:                  10.020
REMARK UNBOUND:                 9.806
REMARK  14 active torsions:
REMARK  status: ('A' for Active; 'I' for Inactive)
REMARK    1  A    between atoms: C_15  and  O_1 
REMARK    2  A    between atoms: C_18  and  O_1 
REMARK    3  A    between atoms: C_16  and  O_4 
REMARK    4  A    between atoms: C_20  and  O_5 
REMARK    5  A    between atoms: O_5  and  C_27 
REMARK    6  A    between atoms: C_17  and  O_6 
REMARK    7  A    between atoms: C_19  and  O_7 
REMARK    8  A    between atoms: C_22  and  O_8 
REMARK    9  A    between atoms: C_23  and  O_9 
REMARK   10  A    between atoms: O_10  and  C_25 
REMARK   11  A    between atoms: O_12  and  C_31 
REMARK   12  A    between atoms: O_14  and  C_41 
REMARK   13  A    between atoms: C_21  and  C_25 
REMARK   14  A    between atoms: C_34  and  C_36 
ROOT
ATOM      1  O   UNL d   1      -7.951  -0.485   5.913  0.00  0.00    -0.348 OA
ATOM      2  C   UNL d   1      -8.266  -2.184   6.025  0.00  0.00     0.211 A 
ATOM      3  C   UNL d   1      -9.143  -1.993   6.466  0.00  0.00     0.183 A 
ATOM      4  C   UNL d   1      -9.424  -1.047   6.630  0.00  0.00     0.180 A 
ATOM      5  C   UNL d   1      -7.670  -1.430   5.749  0.00  0.00     0.298 A 
ATOM      6  C   UNL d   1      -8.828  -0.293   6.353  0.00  0.00     0.179 A 
ENDROOT
BRANCH   5   7
ATOM      7  O   UNL d   1      -6.793  -1.622   5.308  0.00  0.00    -0.318 OA
BRANCH   7   8
ATOM      8  C   UNL d   1      -6.073  -0.928   5.304  0.00  0.00     0.077 A 
ATOM      9  C   UNL d   1      -6.032  -0.218   4.542  0.00  0.00     0.075 A 
ATOM     10  C   UNL d   1      -5.278   0.500   4.549  0.00  0.00     0.095 A 
ATOM     11  O   UNL d   1      -5.245   1.177   3.814  0.00  0.00    -0.309 OA
ATOM     12  C   UNL d   1      -4.592   0.518   5.276  0.00  0.00     0.081 A 
ATOM     13  C   UNL d   1      -4.526   1.873   3.807  0.00  0.00     0.090 A 
ATOM     14  C   UNL d   1      -3.841   1.891   4.534  0.00  0.00     0.094 A 
ATOM     15  C   UNL d   1      -3.873   1.214   5.269  0.00  0.00     0.190 A 
ATOM     16  O   UNL d   1      -3.188   1.231   5.997  0.00  0.00    -0.287 OA
ATOM     17  C   UNL d   1      -4.614  -0.182   6.048  0.00  0.00     0.085 A 
ATOM     18  C   UNL d   1      -5.359  -0.909   6.062  0.00  0.00     0.074 A 
BRANCH  13  19
ATOM     19  C   UNL d   1      -4.493   2.551   3.072  0.00  0.00    -0.002 A 
ATOM     20  C   UNL d   1      -5.150   3.305   3.057  0.00  0.00     0.017 A 
ATOM     21  C   UNL d   1      -5.116   3.982   2.322  0.00  0.00     0.037 A 
ATOM     22  C   UNL d   1      -4.426   3.906   1.602  0.00  0.00     0.065 A 
ATOM     23  C   UNL d   1      -3.770   3.152   1.617  0.00  0.00     0.037 A 
ATOM     24  C   UNL d   1      -3.803   2.474   2.352  0.00  0.00     0.017 A 
BRANCH  22  25
ATOM     25  O   UNL d   1      -4.393   4.584   0.868  0.00  0.00    -0.361 OA
ATOM     26  H   UNL d   1      -4.917   4.766   0.591  0.00  0.00     0.217 HD
ENDBRANCH  22  25
ENDBRANCH  13  19
BRANCH  17  27
ATOM     27  O   UNL d   1      -3.923  -0.154   6.771  0.00  0.00    -0.360 OA
ATOM     28  H   UNL d   1      -3.324  -0.235   6.630  0.00  0.00     0.217 HD
ENDBRANCH  17  27
ENDBRANCH   7   8
ENDBRANCH   5   7
BRANCH   2  29
ATOM     29  O   UNL d   1      -7.985  -3.130   5.861  0.00  0.00    -0.346 OA
BRANCH  29  30
ATOM     30  C   UNL d   1      -7.442  -3.616   6.546  0.00  0.00     0.292 A 
ATOM     31  O   UNL d   1      -7.384  -3.264   7.480  0.00  0.00    -0.351 OA
ATOM     32  C   UNL d   1      -6.840  -3.750   8.164  0.00  0.00     0.152 A 
ATOM     33  C   UNL d   1      -6.355  -4.588   7.915  0.00  0.00     0.178 A 
ATOM     34  C   UNL d   1      -6.783  -3.398   9.099  0.00  0.00     0.042 C 
ATOM     35  C   UNL d   1      -6.413  -4.939   6.980  0.00  0.00     0.183 A 
ATOM     36  C   UNL d   1      -6.956  -4.453   6.296  0.00  0.00     0.204 A 
BRANCH  33  37
ATOM     37  O   UNL d   1      -5.811  -5.073   8.599  0.00  0.00    -0.390 OA
ATOM     38  H   UNL d   1      -5.455  -4.756   8.995  0.00  0.00     0.210 HD
ENDBRANCH  33  37
BRANCH  35  39
ATOM     39  O   UNL d   1      -5.927  -5.777   6.731  0.00  0.00    -0.390 OA
ATOM     40  H   UNL d   1      -6.146  -6.139   6.277  0.00  0.00     0.210 HD
ENDBRANCH  35  39
BRANCH  36  41
ATOM     41  O   UNL d   1      -7.014  -4.805   5.362  0.00  0.00    -0.388 OA
ATOM     42  H   UNL d   1      -7.334  -5.323   5.245  0.00  0.00     0.210 HD
ENDBRANCH  36  41
ENDBRANCH  29  30
ENDBRANCH   2  29
BRANCH   6  43
ATOM     43  C   UNL d   1      -9.109   0.652   6.517  0.00  0.00     0.198 C 
BRANCH  43  44
ATOM     44  O   UNL d   1      -9.204   1.286   5.749  0.00  0.00    -0.398 OA
ATOM     45  H   UNL d   1      -8.866   1.806   5.733  0.00  0.00     0.209 HD
ENDBRANCH  43  44
ENDBRANCH   6  43
BRANCH   3  46
ATOM     46  O   UNL d   1      -9.739  -2.746   6.742  0.00  0.00    -0.390 OA
ATOM     47  H   UNL d   1      -9.527  -3.329   6.731  0.00  0.00     0.210 HD
ENDBRANCH   3  46
BRANCH   4  48
ATOM     48  O   UNL d   1     -10.301  -0.855   7.070  0.00  0.00    -0.390 OA
ATOM     49  H   UNL d   1     -10.322  -0.731   7.677  0.00  0.00     0.210 HD
ENDBRANCH   4  48
TORSDOF 14
ENDMDL
MODEL 2
REMARK VINA RESULT:    -8.523     18.083     20.806
REMARK INTER + INTRA:          -3.700
REMARK INTER:                 -13.798
REMARK INTRA:                  10.099
REMARK UNBOUND:                 9.806
REMARK  14 active torsions:
REMARK  status: ('A' for Active; 'I' for Inactive)
REMARK    1  A    between atoms: C_15  and  O_1 
REMARK    2  A    between atoms: C_18  and  O_1 
REMARK    3  A    between atoms: C_16  and  O_4 
REMARK    4  A    between atoms: C_20  and  O_5 
REMARK    5  A    between atoms: O_5  and  C_27 
REMARK    6  A    between atoms: C_17  and  O_6 
REMARK    7  A    between atoms: C_19  and  O_7 
REMARK    8  A    between atoms: C_22  and  O_8 
REMARK    9  A    between atoms: C_23  and  O_9 
REMARK   10  A    between atoms: O_10  and  C_25 
REMARK   11  A    between atoms: O_12  and  C_31 
REMARK   12  A    between atoms: O_14  and  C_41 
REMARK   13  A    between atoms: C_21  and  C_25 
REMARK   14  A    between atoms: C_34  and  C_36 
ROOT
ATOM      1  O   UNL d   1      10.694  -2.377  -1.829  0.00  0.00    -0.348 OA
ATOM      2  C   UNL d   1      10.435  -3.628  -2.999  0.00  0.00     0.211 A 
ATOM      3  C   UNL d   1       9.452  -3.443  -2.979  0.00  0.00     0.183 A 
ATOM      4  C   UNL d   1       9.091  -2.725  -2.384  0.00  0.00     0.180 A 
ATOM      5  C   UNL d   1      11.056  -3.095  -2.424  0.00  0.00     0.298 A 
ATOM      6  C   UNL d   1       9.712  -2.192  -1.809  0.00  0.00     0.179 A 
ENDROOT
BRANCH   5   7
ATOM      7  O   UNL d   1      12.038  -3.280  -2.444  0.00  0.00    -0.318 OA
BRANCH   7   8
ATOM      8  C   UNL d   1      12.663  -2.726  -1.893  0.00  0.00     0.077 A 
ATOM      9  C   UNL d   1      13.083  -1.859  -2.288  0.00  0.00     0.075 A 
ATOM     10  C   UNL d   1      13.732  -1.290  -1.706  0.00  0.00     0.095 A 
ATOM     11  O   UNL d   1      14.131  -0.458  -2.092  0.00  0.00    -0.309 OA
ATOM     12  C   UNL d   1      13.958  -1.564  -0.771  0.00  0.00     0.081 A 
ATOM     13  C   UNL d   1      14.756   0.098  -1.545  0.00  0.00     0.090 A 
ATOM     14  C   UNL d   1      14.981  -0.177  -0.610  0.00  0.00     0.094 A 
ATOM     15  C   UNL d   1      14.583  -1.008  -0.223  0.00  0.00     0.190 A 
ATOM     16  O   UNL d   1      14.808  -1.283   0.711  0.00  0.00    -0.287 OA
ATOM     17  C   UNL d   1      13.549  -2.428  -0.355  0.00  0.00     0.085 A 
ATOM     18  C   UNL d   1      12.898  -3.012  -0.919  0.00  0.00     0.074 A 
BRANCH  13  19
ATOM     19  C   UNL d   1      15.155   0.930  -1.931  0.00  0.00    -0.002 A 
ATOM     20  C   UNL d   1      15.505   1.645  -1.326  0.00  0.00     0.017 A 
ATOM     21  C   UNL d   1      15.904   2.476  -1.713  0.00  0.00     0.037 A 
ATOM     22  C   UNL d   1      15.954   2.592  -2.705  0.00  0.00     0.065 A 
ATOM     23  C   UNL d   1      15.604   1.877  -3.310  0.00  0.00     0.037 A 
ATOM     24  C   UNL d   1      15.205   1.045  -2.923  0.00  0.00     0.017 A 
BRANCH  22  25
ATOM     25  O   UNL d   1      16.353   3.423  -3.091  0.00  0.00    -0.361 OA
ATOM     26  H   UNL d   1      16.296   3.542  -3.697  0.00  0.00     0.217 HD
ENDBRANCH  22  25
ENDBRANCH  13  19
BRANCH  17  27
ATOM     27  O   UNL d   1      13.782  -2.693   0.581  0.00  0.00    -0.360 OA
ATOM     28  H   UNL d   1      13.378  -3.019   0.921  0.00  0.00     0.217 HD
ENDBRANCH  17  27
ENDBRANCH   7   8
ENDBRANCH   5   7
BRANCH   2  29
ATOM     29  O   UNL d   1      10.796  -4.346  -3.593  0.00  0.00    -0.346 OA
BRANCH  29  30
ATOM     30  C   UNL d   1      10.979  -4.151  -4.557  0.00  0.00     0.292 A 
ATOM     31  O   UNL d   1      11.020  -3.205  -4.878  0.00  0.00    -0.351 OA
ATOM     32  C   UNL d   1      11.202  -3.011  -5.841  0.00  0.00     0.152 A 
ATOM     33  C   UNL d   1      11.344  -3.763  -6.485  0.00  0.00     0.178 A 
ATOM     34  C   UNL d   1      11.243  -2.065  -6.162  0.00  0.00     0.042 C 
ATOM     35  C   UNL d   1      11.303  -4.710  -6.164  0.00  0.00     0.183 A 
ATOM     36  C   UNL d   1      11.121  -4.904  -5.201  0.00  0.00     0.204 A 
BRANCH  33  37
ATOM     37  O   UNL d   1      11.527  -3.569  -7.449  0.00  0.00    -0.390 OA
ATOM     38  H   UNL d   1      11.824  -3.986  -7.798  0.00  0.00     0.210 HD
ENDBRANCH  33  37
BRANCH  35  39
ATOM     39  O   UNL d   1      11.445  -5.462  -6.808  0.00  0.00    -0.390 OA
ATOM     40  H   UNL d   1      11.508  -6.042  -6.598  0.00  0.00     0.210 HD
ENDBRANCH  35  39
BRANCH  36  41
ATOM     41  O   UNL d   1      11.080  -5.850  -4.880  0.00  0.00    -0.388 OA
ATOM     42  H   UNL d   1      10.651  -6.018  -4.465  0.00  0.00     0.210 HD
ENDBRANCH  36  41
ENDBRANCH  29  30
ENDBRANCH   2  29
BRANCH   6  43
ATOM     43  C   UNL d   1       9.350  -1.474  -1.214  0.00  0.00     0.198 C 
BRANCH  43  44
ATOM     44  O   UNL d   1       9.919  -1.097  -0.483  0.00  0.00    -0.398 OA
ATOM     45  H   UNL d   1       9.790  -1.229   0.109  0.00  0.00     0.209 HD
ENDBRANCH  43  44
ENDBRANCH   6  43
BRANCH   3  46
ATOM     46  O   UNL d   1       8.831  -3.975  -3.554  0.00  0.00    -0.390 OA
ATOM     47  H   UNL d   1       8.254  -3.774  -3.656  0.00  0.00     0.210 HD
ENDBRANCH   3  46
BRANCH   4  48
ATOM     48  O   UNL d   1       8.108  -2.540  -2.364  0.00  0.00    -0.390 OA
ATOM     49  H   UNL d   1       7.704  -3.010  -2.359  0.00  0.00     0.210 HD
ENDBRANCH   4  48
TORSDOF 14
ENDMDL
MODEL 3
REMARK VINA RESULT:    -8.520     19.388     23.496
REMARK INTER + INTRA:          -3.695
REMARK INTER:                 -13.812
REMARK INTRA:                  10.117
REMARK UNBOUND:                 9.806
REMARK  14 active torsions:
REMARK  status: ('A' for Active; 'I' for Inactive)
REMARK    1  A    between atoms: C_15  and  O_1 
REMARK    2  A    between atoms: C_18  and  O_1 
REMARK    3  A    between atoms: C_16  and  O_4 
REMARK    4  A    between atoms: C_20  and  O_5 
REMARK    5  A    between atoms: O_5  and  C_27 
REMARK    6  A    between atoms: C_17  and  O_6 
REMARK    7  A    between atoms: C_19  and  O_7 
REMARK    8  A    between atoms: C_22  and  O_8 
REMARK    9  A    between atoms: C_23  and  O_9 
REMARK   10  A    between atoms: O_10  and  C_25 
REMARK   11  A    between atoms: O_12  and  C_31 
REMARK   12  A    between atoms: O_14  and  C_41 
REMARK   13  A    between atoms: C_21  and  C_25 
REMARK   14  A    between atoms: C_34  and  C_36 
ROOT
ATOM      1  O   UNL d   1       1.752   0.709 -16.901  0.00  0.00    -0.348 OA
ATOM      2  C   UNL d   1       1.812   1.675 -15.465  0.00  0.00     0.211 A 
ATOM      3  C   UNL d   1       2.573   2.199 -15.849  0.00  0.00     0.183 A 
ATOM      4  C   UNL d   1       2.922   1.978 -16.759  0.00  0.00     0.180 A 
ATOM      5  C   UNL d   1       1.402   0.930 -15.991  0.00  0.00     0.298 A 
ATOM      6  C   UNL d   1       2.512   1.233 -17.286  0.00  0.00     0.179 A 
ENDROOT
BRANCH   5   7
ATOM      7  O   UNL d   1       0.642   0.406 -15.606  0.00  0.00    -0.318 OA
BRANCH   7   8
ATOM      8  C   UNL d   1       0.279  -0.384 -16.101  0.00  0.00     0.077 A 
ATOM      9  C   UNL d   1       0.793  -1.289 -16.095  0.00  0.00     0.075 A 
ATOM     10  C   UNL d   1       0.406  -2.105 -16.613  0.00  0.00     0.095 A 
ATOM     11  O   UNL d   1       0.906  -2.971 -16.602  0.00  0.00    -0.309 OA
ATOM     12  C   UNL d   1      -0.455  -2.031 -17.117  0.00  0.00     0.081 A 
ATOM     13  C   UNL d   1       0.545  -3.763 -17.096  0.00  0.00     0.090 A 
ATOM     14  C   UNL d   1      -0.315  -3.688 -17.599  0.00  0.00     0.094 A 
ATOM     15  C   UNL d   1      -0.815  -2.823 -17.610  0.00  0.00     0.190 A 
ATOM     16  O   UNL d   1      -1.676  -2.749 -18.114  0.00  0.00    -0.287 OA
ATOM     17  C   UNL d   1      -0.987  -1.135 -17.137  0.00  0.00     0.085 A 
ATOM     18  C   UNL d   1      -0.618  -0.307 -16.626  0.00  0.00     0.074 A 
BRANCH  13  19
ATOM     19  C   UNL d   1       1.045  -4.629 -17.085  0.00  0.00    -0.002 A 
ATOM     20  C   UNL d   1       1.846  -4.737 -16.496  0.00  0.00     0.017 A 
ATOM     21  C   UNL d   1       2.345  -5.604 -16.486  0.00  0.00     0.037 A 
ATOM     22  C   UNL d   1       2.045  -6.361 -17.065  0.00  0.00     0.065 A 
ATOM     23  C   UNL d   1       1.244  -6.253 -17.654  0.00  0.00     0.037 A 
ATOM     24  C   UNL d   1       0.744  -5.387 -17.664  0.00  0.00     0.017 A 
BRANCH  22  25
ATOM     25  O   UNL d   1       2.545  -7.228 -17.054  0.00  0.00    -0.361 OA
ATOM     26  H   UNL d   1       2.245  -7.757 -16.935  0.00  0.00     0.217 HD
ENDBRANCH  22  25
ENDBRANCH  13  19
BRANCH  17  27
ATOM     27  O   UNL d   1      -1.847  -1.073 -17.644  0.00  0.00    -0.360 OA
ATOM     28  H   UNL d   1      -2.371  -0.925 -17.348  0.00  0.00     0.217 HD
ENDBRANCH  17  27
ENDBRANCH   7   8
ENDBRANCH   5   7
BRANCH   2  29
ATOM     29  O   UNL d   1       1.463   1.896 -14.554  0.00  0.00    -0.346 OA
BRANCH  29  30
ATOM     30  C   UNL d   1       1.788   1.387 -13.757  0.00  0.00     0.292 A 
ATOM     31  O   UNL d   1       2.659   0.897 -13.797  0.00  0.00    -0.351 OA
ATOM     32  C   UNL d   1       2.984   0.389 -13.000  0.00  0.00     0.152 A 
ATOM     33  C   UNL d   1       2.438   0.370 -12.162  0.00  0.00     0.178 A 
ATOM     34  C   UNL d   1       3.855  -0.101 -13.040  0.00  0.00     0.042 C 
ATOM     35  C   UNL d   1       1.567   0.860 -12.122  0.00  0.00     0.183 A 
ATOM     36  C   UNL d   1       1.242   1.368 -12.919  0.00  0.00     0.204 A 
BRANCH  33  37
ATOM     37  O   UNL d   1       2.763  -0.139 -11.365  0.00  0.00    -0.390 OA
ATOM     38  H   UNL d   1       2.703   0.103 -10.797  0.00  0.00     0.210 HD
ENDBRANCH  33  37
BRANCH  35  39
ATOM     39  O   UNL d   1       1.021   0.841 -11.284  0.00  0.00    -0.390 OA
ATOM     40  H   UNL d   1       0.841   1.372 -11.020  0.00  0.00     0.210 HD
ENDBRANCH  35  39
BRANCH  36  41
ATOM     41  O   UNL d   1       0.371   1.858 -12.879  0.00  0.00    -0.388 OA
ATOM     42  H   UNL d   1      -0.118   1.648 -13.197  0.00  0.00     0.210 HD
ENDBRANCH  36  41
ENDBRANCH  29  30
ENDBRANCH   2  29
BRANCH   6  43
ATOM     43  C   UNL d   1       2.861   1.012 -18.196  0.00  0.00     0.198 C 
BRANCH  43  44
ATOM     44  O   UNL d   1       2.250   0.625 -18.886  0.00  0.00    -0.398 OA
ATOM     45  H   UNL d   1       2.193   0.900 -19.439  0.00  0.00     0.209 HD
ENDBRANCH  43  44
ENDBRANCH   6  43
BRANCH   3  46
ATOM     46  O   UNL d   1       2.983   2.944 -15.323  0.00  0.00    -0.390 OA
ATOM     47  H   UNL d   1       3.277   2.822 -14.791  0.00  0.00     0.210 HD
ENDBRANCH   3  46
BRANCH   4  48
ATOM     48  O   UNL d   1       3.682   2.502 -17.144  0.00  0.00    -0.390 OA
ATOM     49  H   UNL d   1       3.773   2.512 -17.757  0.00  0.00     0.210 HD
ENDBRANCH   4  48
TORSDOF 14
ENDMDL
MODEL 4
REMARK VINA RESULT:    -8.489     16.292     19.084
REMARK INTER + INTRA:          -3.646
REMARK INTER:                 -13.641
REMARK INTRA:                   9.994
REMARK UNBOUND:                 9.806
REMARK  14 active torsions:
REMARK  status: ('A' for Active; 'I' for Inactive)
REMARK    1  A    between atoms: C_15  and  O_1 
REMARK    2  A    between atoms: C_18  and  O_1 
REMARK    3  A    between atoms: C_16  and  O_4 
REMARK    4  A    between atoms: C_20  and  O_5 
REMARK    5  A    between atoms: O_5  and  C_27 
REMARK    6  A    between atoms: C_17  and  O_6 
REMARK    7  A    between atoms: C_19  and  O_7 
REMARK    8  A    between atoms: C_22  and  O_8 
REMARK    9  A    between atoms: C_23  and  O_9 
REMARK   10  A    between atoms: O_10  and  C_25 
REMARK   11  A    between atoms: O_12  and  C_31 
REMARK   12  A    between atoms: O_14  and  C_41 
REMARK   13  A    between atoms: C_21  and  C_25 
REMARK   14  A    between atoms: C_34  and  C_36 
ROOT
ATOM      1  O   UNL d   1       0.698  12.939  -5.356  0.00  0.00    -0.348 OA
ATOM      2  C   UNL d   1      -0.118  11.712  -6.266  0.00  0.00     0.211 A 
ATOM      3  C   UNL d   1      -0.992  12.169  -6.099  0.00  0.00     0.183 A 
ATOM      4  C   UNL d   1      -1.020  13.011  -5.560  0.00  0.00     0.180 A 
ATOM      5  C   UNL d   1       0.727  12.097  -5.895  0.00  0.00     0.298 A 
ATOM      6  C   UNL d   1      -0.175  13.396  -5.188  0.00  0.00     0.179 A 
ENDROOT
BRANCH   5   7
ATOM      7  O   UNL d   1       1.600  11.640  -6.062  0.00  0.00    -0.318 OA
BRANCH   7   8
ATOM      8  C   UNL d   1       2.386  11.831  -5.473  0.00  0.00     0.077 A 
ATOM      9  C   UNL d   1       2.413  11.465  -4.498  0.00  0.00     0.075 A 
ATOM     10  C   UNL d   1       3.235  11.671  -3.894  0.00  0.00     0.095 A 
ATOM     11  O   UNL d   1       3.254  11.316  -2.959  0.00  0.00    -0.309 OA
ATOM     12  C   UNL d   1       4.001  12.215  -4.237  0.00  0.00     0.081 A 
ATOM     13  C   UNL d   1       4.037  11.505  -2.367  0.00  0.00     0.090 A 
ATOM     14  C   UNL d   1       4.802  12.050  -2.711  0.00  0.00     0.094 A 
ATOM     15  C   UNL d   1       4.785  12.405  -3.645  0.00  0.00     0.190 A 
ATOM     16  O   UNL d   1       5.550  12.949  -3.988  0.00  0.00    -0.287 OA
ATOM     17  C   UNL d   1       3.996  12.592  -5.208  0.00  0.00     0.085 A 
ATOM     18  C   UNL d   1       3.183  12.399  -5.830  0.00  0.00     0.074 A 
BRANCH  13  19
ATOM     19  C   UNL d   1       4.056  11.150  -1.433  0.00  0.00    -0.002 A 
ATOM     20  C   UNL d   1       4.827  10.593  -1.124  0.00  0.00     0.017 A 
ATOM     21  C   UNL d   1       4.845  10.239  -0.190  0.00  0.00     0.037 A 
ATOM     22  C   UNL d   1       4.092  10.440   0.437  0.00  0.00     0.065 A 
ATOM     23  C   UNL d   1       3.321  10.997   0.128  0.00  0.00     0.037 A 
ATOM     24  C   UNL d   1       3.303  11.352  -0.807  0.00  0.00     0.017 A 
BRANCH  22  25
ATOM     25  O   UNL d   1       4.111  10.085   1.372  0.00  0.00    -0.361 OA
ATOM     26  H   UNL d   1       4.429  10.386   1.811  0.00  0.00     0.217 HD
ENDBRANCH  22  25
ENDBRANCH  13  19
BRANCH  17  27
ATOM     27  O   UNL d   1       4.767  13.136  -5.540  0.00  0.00    -0.360 OA
ATOM     28  H   UNL d   1       5.267  12.853  -5.775  0.00  0.00     0.217 HD
ENDBRANCH  17  27
ENDBRANCH   7   8
ENDBRANCH   5   7
BRANCH   2  29
ATOM     29  O   UNL d   1      -0.089  10.870  -6.805  0.00  0.00    -0.346 OA
BRANCH  29  30
ATOM     30  C   UNL d   1       0.201  10.898  -7.761  0.00  0.00     0.292 A 
ATOM     31  O   UNL d   1       0.144  11.754  -8.276  0.00  0.00    -0.351 OA
ATOM     32  C   UNL d   1       0.434  11.782  -9.232  0.00  0.00     0.152 A 
ATOM     33  C   UNL d   1       0.781  10.955  -9.674  0.00  0.00     0.178 A 
ATOM     34  C   UNL d   1       0.378  12.637  -9.747  0.00  0.00     0.042 C 
ATOM     35  C   UNL d   1       0.837  10.099  -9.160  0.00  0.00     0.183 A 
ATOM     36  C   UNL d   1       0.547  10.071  -8.203  0.00  0.00     0.204 A 
BRANCH  33  37
ATOM     37  O   UNL d   1       1.071  10.983 -10.631  0.00  0.00    -0.390 OA
ATOM     38  H   UNL d   1       0.825  10.588 -11.041  0.00  0.00     0.210 HD
ENDBRANCH  33  37
BRANCH  35  39
ATOM     39  O   UNL d   1       1.184   9.272  -9.602  0.00  0.00    -0.390 OA
ATOM     40  H   UNL d   1       1.415   9.301 -10.177  0.00  0.00     0.210 HD
ENDBRANCH  35  39
BRANCH  36  41
ATOM     41  O   UNL d   1       0.604   9.215  -7.689  0.00  0.00    -0.388 OA
ATOM     42  H   UNL d   1       0.985   8.764  -7.878  0.00  0.00     0.210 HD
ENDBRANCH  36  41
ENDBRANCH  29  30
ENDBRANCH   2  29
BRANCH   6  43
ATOM     43  C   UNL d   1      -0.204  14.238  -4.650  0.00  0.00     0.198 C 
BRANCH  43  44
ATOM     44  O   UNL d   1       0.325  14.309  -3.804  0.00  0.00    -0.398 OA
ATOM     45  H   UNL d   1       0.043  14.463  -3.274  0.00  0.00     0.209 HD
ENDBRANCH  43  44
ENDBRANCH   6  43
BRANCH   3  46
ATOM     46  O   UNL d   1      -1.836  11.784  -6.470  0.00  0.00    -0.390 OA
ATOM     47  H   UNL d   1      -1.812  11.308  -6.867  0.00  0.00     0.210 HD
ENDBRANCH   3  46
BRANCH   4  48
ATOM     48  O   UNL d   1      -1.894  13.468  -5.393  0.00  0.00    -0.390 OA
ATOM     49  H   UNL d   1      -1.904  14.054  -5.191  0.00  0.00     0.210 HD
ENDBRANCH   4  48
TORSDOF 14
ENDMDL
MODEL 5
REMARK VINA RESULT:    -8.425     16.260     19.288
REMARK INTER + INTRA:          -3.544
REMARK INTER:                 -13.689
REMARK INTRA:                  10.144
REMARK UNBOUND:                 9.806
REMARK  14 active torsions:
REMARK  status: ('A' for Active; 'I' for Inactive)
REMARK    1  A    between atoms: C_15  and  O_1 
REMARK    2  A    between atoms: C_18  and  O_1 
REMARK    3  A    between atoms: C_16  and  O_4 
REMARK    4  A    between atoms: C_20  and  O_5 
REMARK    5  A    between atoms: O_5  and  C_27 
REMARK    6  A    between atoms: C_17  and  O_6 
REMARK    7  A    between atoms: C_19  and  O_7 
REMARK    8  A    between atoms: C_22  and  O_8 
REMARK    9  A    between atoms: C_23  and  O_9 
REMARK   10  A    between atoms: O_10  and  C_25 
REMARK   11  A    between atoms: O_12  and  C_31 
REMARK   12  A    between atoms: O_14  and  C_41 
REMARK   13  A    between atoms: C_21  and  C_25 
REMARK   14  A    between atoms: C_34  and  C_36 
ROOT
ATOM      1  O   UNL d   1       1.339  11.192  -6.736  0.00  0.00    -0.348 OA
ATOM      2  C   UNL d   1      -0.127  11.903  -6.148  0.00  0.00     0.211 A 
ATOM      3  C   UNL d   1      -0.655  11.172  -6.579  0.00  0.00     0.183 A 
ATOM      4  C   UNL d   1      -0.186  10.450  -7.089  0.00  0.00     0.180 A 
ATOM      5  C   UNL d   1       0.870  11.913  -6.226  0.00  0.00     0.298 A 
ATOM      6  C   UNL d   1       0.811  10.461  -7.167  0.00  0.00     0.179 A 
ENDROOT
BRANCH   5   7
ATOM      7  O   UNL d   1       1.398  12.645  -5.795  0.00  0.00    -0.318 OA
BRANCH   7   8
ATOM      8  C   UNL d   1       2.255  12.432  -5.325  0.00  0.00     0.077 A 
ATOM      9  C   UNL d   1       2.246  12.126  -4.329  0.00  0.00     0.075 A 
ATOM     10  C   UNL d   1       3.145  11.907  -3.850  0.00  0.00     0.095 A 
ATOM     11  O   UNL d   1       3.128  11.613  -2.895  0.00  0.00    -0.309 OA
ATOM     12  C   UNL d   1       4.017  11.988  -4.333  0.00  0.00     0.081 A 
ATOM     13  C   UNL d   1       3.983  11.400  -2.422  0.00  0.00     0.090 A 
ATOM     14  C   UNL d   1       4.854  11.481  -2.904  0.00  0.00     0.094 A 
ATOM     15  C   UNL d   1       4.872  11.775  -3.860  0.00  0.00     0.190 A 
ATOM     16  O   UNL d   1       5.744  11.856  -4.343  0.00  0.00    -0.287 OA
ATOM     17  C   UNL d   1       4.050  12.293  -5.329  0.00  0.00     0.085 A 
ATOM     18  C   UNL d   1       3.164  12.516  -5.828  0.00  0.00     0.074 A 
BRANCH  13  19
ATOM     19  C   UNL d   1       3.966  11.106  -1.466  0.00  0.00    -0.002 A 
ATOM     20  C   UNL d   1       4.703  10.534  -1.105  0.00  0.00     0.017 A 
ATOM     21  C   UNL d   1       4.685  10.241  -0.150  0.00  0.00     0.037 A 
ATOM     22  C   UNL d   1       3.932  10.519   0.446  0.00  0.00     0.065 A 
ATOM     23  C   UNL d   1       3.195  11.092   0.085  0.00  0.00     0.037 A 
ATOM     24  C   UNL d   1       3.212  11.386  -0.871  0.00  0.00     0.017 A 
BRANCH  22  25
ATOM     25  O   UNL d   1       3.915  10.225   1.402  0.00  0.00    -0.361 OA
ATOM     26  H   UNL d   1       4.444  10.081   1.691  0.00  0.00     0.217 HD
ENDBRANCH  22  25
ENDBRANCH  13  19
BRANCH  17  27
ATOM     27  O   UNL d   1       4.928  12.370  -5.802  0.00  0.00    -0.360 OA
ATOM     28  H   UNL d   1       5.135  11.900  -6.150  0.00  0.00     0.217 HD
ENDBRANCH  17  27
ENDBRANCH   7   8
ENDBRANCH   5   7
BRANCH   2  29
ATOM     29  O   UNL d   1      -0.595  12.625  -5.638  0.00  0.00    -0.346 OA
BRANCH  29  30
ATOM     30  C   UNL d   1      -0.959  13.422  -6.119  0.00  0.00     0.292 A 
ATOM     31  O   UNL d   1      -0.633  13.642  -7.039  0.00  0.00    -0.351 OA
ATOM     32  C   UNL d   1      -0.997  14.439  -7.521  0.00  0.00     0.152 A 
ATOM     33  C   UNL d   1      -1.686  15.017  -7.083  0.00  0.00     0.178 A 
ATOM     34  C   UNL d   1      -0.671  14.660  -8.440  0.00  0.00     0.042 C 
ATOM     35  C   UNL d   1      -2.012  14.796  -6.164  0.00  0.00     0.183 A 
ATOM     36  C   UNL d   1      -1.648  13.999  -5.682  0.00  0.00     0.204 A 
BRANCH  33  37
ATOM     37  O   UNL d   1      -2.050  15.814  -7.565  0.00  0.00    -0.390 OA
ATOM     38  H   UNL d   1      -1.944  15.884  -8.171  0.00  0.00     0.210 HD
ENDBRANCH  33  37
BRANCH  35  39
ATOM     39  O   UNL d   1      -2.701  15.373  -5.726  0.00  0.00    -0.390 OA
ATOM     40  H   UNL d   1      -2.894  15.892  -6.005  0.00  0.00     0.210 HD
ENDBRANCH  35  39
BRANCH  36  41
ATOM     41  O   UNL d   1      -1.974  13.779  -4.762  0.00  0.00    -0.388 OA
ATOM     42  H   UNL d   1      -1.709  13.319  -4.441  0.00  0.00     0.210 HD
ENDBRANCH  36  41
ENDBRANCH  29  30
ENDBRANCH   2  29
BRANCH   6  43
ATOM     43  C   UNL d   1       1.279   9.739  -7.677  0.00  0.00     0.198 C 
BRANCH  43  44
ATOM     44  O   UNL d   1       2.019   9.973  -8.308  0.00  0.00    -0.398 OA
ATOM     45  H   UNL d   1       2.191  10.564  -8.379  0.00  0.00     0.209 HD
ENDBRANCH  43  44
ENDBRANCH   6  43
BRANCH   3  46
ATOM     46  O   UNL d   1      -1.652  11.162  -6.500  0.00  0.00    -0.390 OA
ATOM     47  H   UNL d   1      -2.002  11.111  -7.009  0.00  0.00     0.210 HD
ENDBRANCH   3  46
BRANCH   4  48
ATOM     48  O   UNL d   1      -0.714   9.719  -7.520  0.00  0.00    -0.390 OA
ATOM     49  H   UNL d   1      -1.262   9.845  -7.782  0.00  0.00     0.210 HD
ENDBRANCH   4  48
TORSDOF 14
ENDMDL
