MODEL 1
REMARK VINA RESULT:    -8.085      0.000      0.000
REMARK INTER + INTRA:           1.549
REMARK INTER:                 -10.923
REMARK INTRA:                  12.471
REMARK UNBOUND:                12.469
REMARK  9 active torsions:
REMARK  status: ('A' for Active; 'I' for Inactive)
REMARK    1  A    between atoms: C_15  and  O_2 
REMARK    2  A    between atoms: O_2  and  C_17 
REMARK    3  A    between atoms: C_11  and  O_3 
REMARK    4  A    between atoms: C_12  and  O_4 
REMARK    5  A    between atoms: C_13  and  O_5 
REMARK    6  A    between atoms: O_8  and  C_23 
REMARK    7  A    between atoms: O_9  and  C_28 
REMARK    8  A    between atoms: O_10  and  C_31 
REMARK    9  A    between atoms: C_18  and  C_22 
ROOT
ATOM      1  O   UNL d   1      -4.465   3.011   2.826  0.00  0.00    -0.306 OA
ATOM      2  O   UNL d   1      -5.427   2.709   5.652  0.00  0.00    -0.284 OA
ATOM      3  C   UNL d   1      -4.334   2.264   4.384  0.00  0.00     0.157 A 
ATOM      4  C   UNL d   1      -4.013   2.365   3.442  0.00  0.00     0.123 A 
ATOM      5  C   UNL d   1      -5.106   2.810   4.710  0.00  0.00     0.223 A 
ATOM      6  C   UNL d   1      -5.558   3.455   4.094  0.00  0.00     0.084 A 
ATOM      7  C   UNL d   1      -5.237   3.556   3.153  0.00  0.00     0.096 A 
ATOM      8  C   UNL d   1      -6.361   4.017   4.448  0.00  0.00     0.085 A 
ATOM      9  C   UNL d   1      -5.697   4.225   2.499  0.00  0.00     0.075 A 
ATOM     10  C   UNL d   1      -6.836   4.692   3.813  0.00  0.00     0.074 A 
ATOM     11  C   UNL d   1      -6.502   4.796   2.832  0.00  0.00     0.071 A 
ENDROOT
BRANCH   3  12
ATOM     12  O   UNL d   1      -3.882   1.618   4.999  0.00  0.00    -0.311 OA
BRANCH  12  13
ATOM     13  C   UNL d   1      -4.376   0.814   5.330  0.00  0.00     0.298 A 
ATOM     14  O   UNL d   1      -5.135   0.440   4.797  0.00  0.00    -0.351 OA
ATOM     15  C   UNL d   1      -5.629  -0.365   5.127  0.00  0.00     0.152 A 
ATOM     16  C   UNL d   1      -5.363  -0.795   5.990  0.00  0.00     0.178 A 
ATOM     17  C   UNL d   1      -6.388  -0.738   4.595  0.00  0.00     0.042 C 
ATOM     18  C   UNL d   1      -4.604  -0.421   6.522  0.00  0.00     0.183 A 
ATOM     19  C   UNL d   1      -4.110   0.383   6.192  0.00  0.00     0.205 A 
BRANCH  16  20
ATOM     20  O   UNL d   1      -5.857  -1.600   6.320  0.00  0.00    -0.390 OA
ATOM     21  H   UNL d   1      -5.558  -2.034   6.647  0.00  0.00     0.210 HD
ENDBRANCH  16  20
BRANCH  18  22
ATOM     22  O   UNL d   1      -4.338  -0.852   7.385  0.00  0.00    -0.390 OA
ATOM     23  H   UNL d   1      -3.745  -0.840   7.567  0.00  0.00     0.210 HD
ENDBRANCH  18  22
BRANCH  19  24
ATOM     24  O   UNL d   1      -3.351   0.757   6.724  0.00  0.00    -0.388 OA
ATOM     25  H   UNL d   1      -3.045   1.257   6.520  0.00  0.00     0.210 HD
ENDBRANCH  19  24
ENDBRANCH  12  13
ENDBRANCH   3  12
BRANCH   4  26
ATOM     26  C   UNL d   1      -3.241   1.820   3.116  0.00  0.00     0.001 A 
ATOM     27  C   UNL d   1      -2.318   2.010   3.449  0.00  0.00     0.017 A 
ATOM     28  C   UNL d   1      -1.546   1.465   3.123  0.00  0.00     0.037 A 
ATOM     29  C   UNL d   1      -1.697   0.729   2.463  0.00  0.00     0.065 A 
ATOM     30  C   UNL d   1      -2.620   0.538   2.130  0.00  0.00     0.037 A 
ATOM     31  C   UNL d   1      -3.392   1.084   2.456  0.00  0.00     0.017 A 
BRANCH  29  32
ATOM     32  O   UNL d   1      -0.924   0.184   2.137  0.00  0.00    -0.361 OA
ATOM     33  H   UNL d   1      -0.357   0.433   2.112  0.00  0.00     0.217 HD
ENDBRANCH  29  32
ENDBRANCH   4  26
BRANCH   8  34
ATOM     34  O   UNL d   1      -6.673   3.908   5.392  0.00  0.00    -0.360 OA
ATOM     35  H   UNL d   1      -6.940   4.384   5.687  0.00  0.00     0.217 HD
ENDBRANCH   8  34
BRANCH  11  36
ATOM     36  O   UNL d   1      -6.951   5.441   2.213  0.00  0.00    -0.361 OA
ATOM     37  H   UNL d   1      -6.625   5.719   1.765  0.00  0.00     0.217 HD
ENDBRANCH  11  36
TORSDOF 9
ENDMDL
MODEL 2
REMARK VINA RESULT:    -7.942      0.889      1.528
REMARK INTER + INTRA:           1.741
REMARK INTER:                 -10.732
REMARK INTRA:                  12.473
REMARK UNBOUND:                12.469
REMARK  9 active torsions:
REMARK  status: ('A' for Active; 'I' for Inactive)
REMARK    1  A    between atoms: C_15  and  O_2 
REMARK    2  A    between atoms: O_2  and  C_17 
REMARK    3  A    between atoms: C_11  and  O_3 
REMARK    4  A    between atoms: C_12  and  O_4 
REMARK    5  A    between atoms: C_13  and  O_5 
REMARK    6  A    between atoms: O_8  and  C_23 
REMARK    7  A    between atoms: O_9  and  C_28 
REMARK    8  A    between atoms: O_10  and  C_31 
REMARK    9  A    between atoms: C_18  and  C_22 
ROOT
ATOM      1  O   UNL d   1      -4.484   2.997   2.773  0.00  0.00    -0.306 OA
ATOM      2  O   UNL d   1      -6.366   1.578   4.629  0.00  0.00    -0.284 OA
ATOM      3  C   UNL d   1      -4.856   1.639   3.782  0.00  0.00     0.157 A 
ATOM      4  C   UNL d   1      -4.229   2.112   3.163  0.00  0.00     0.123 A 
ATOM      5  C   UNL d   1      -5.739   2.051   4.011  0.00  0.00     0.223 A 
ATOM      6  C   UNL d   1      -5.994   2.935   3.620  0.00  0.00     0.084 A 
ATOM      7  C   UNL d   1      -5.366   3.408   3.002  0.00  0.00     0.096 A 
ATOM      8  C   UNL d   1      -6.916   3.352   3.868  0.00  0.00     0.085 A 
ATOM      9  C   UNL d   1      -5.618   4.331   2.587  0.00  0.00     0.075 A 
ATOM     10  C   UNL d   1      -7.189   4.273   3.465  0.00  0.00     0.074 A 
ATOM     11  C   UNL d   1      -6.535   4.766   2.820  0.00  0.00     0.071 A 
ENDROOT
BRANCH   3  12
ATOM     12  O   UNL d   1      -4.601   0.754   4.172  0.00  0.00    -0.311 OA
BRANCH  12  13
ATOM     13  C   UNL d   1      -4.446   0.668   5.156  0.00  0.00     0.298 A 
ATOM     14  O   UNL d   1      -4.069   1.437   5.673  0.00  0.00    -0.351 OA
ATOM     15  C   UNL d   1      -3.914   1.351   6.657  0.00  0.00     0.152 A 
ATOM     16  C   UNL d   1      -4.136   0.495   7.125  0.00  0.00     0.178 A 
ATOM     17  C   UNL d   1      -3.537   2.120   7.173  0.00  0.00     0.042 C 
ATOM     18  C   UNL d   1      -4.514  -0.274   6.609  0.00  0.00     0.183 A 
ATOM     19  C   UNL d   1      -4.669  -0.187   5.624  0.00  0.00     0.205 A 
BRANCH  16  20
ATOM     20  O   UNL d   1      -3.981   0.409   8.109  0.00  0.00    -0.390 OA
ATOM     21  H   UNL d   1      -4.442   0.526   8.507  0.00  0.00     0.210 HD
ENDBRANCH  16  20
BRANCH  18  22
ATOM     22  O   UNL d   1      -4.736  -1.129   7.077  0.00  0.00    -0.390 OA
ATOM     23  H   UNL d   1      -4.303  -1.420   7.412  0.00  0.00     0.210 HD
ENDBRANCH  18  22
BRANCH  19  24
ATOM     24  O   UNL d   1      -5.046  -0.956   5.108  0.00  0.00    -0.388 OA
ATOM     25  H   UNL d   1      -5.366  -0.853   4.587  0.00  0.00     0.210 HD
ENDBRANCH  19  24
ENDBRANCH  12  13
ENDBRANCH   3  12
BRANCH   4  26
ATOM     26  C   UNL d   1      -3.347   1.700   2.935  0.00  0.00     0.001 A 
ATOM     27  C   UNL d   1      -2.509   2.047   3.357  0.00  0.00     0.017 A 
ATOM     28  C   UNL d   1      -1.627   1.636   3.128  0.00  0.00     0.037 A 
ATOM     29  C   UNL d   1      -1.583   0.877   2.478  0.00  0.00     0.065 A 
ATOM     30  C   UNL d   1      -2.420   0.530   2.056  0.00  0.00     0.037 A 
ATOM     31  C   UNL d   1      -3.303   0.942   2.285  0.00  0.00     0.017 A 
BRANCH  29  32
ATOM     32  O   UNL d   1      -0.700   0.466   2.249  0.00  0.00    -0.361 OA
ATOM     33  H   UNL d   1      -0.674  -0.014   1.857  0.00  0.00     0.217 HD
ENDBRANCH  29  32
ENDBRANCH   4  26
BRANCH   8  34
ATOM     34  O   UNL d   1      -7.535   2.870   4.487  0.00  0.00    -0.360 OA
ATOM     35  H   UNL d   1      -8.023   3.167   4.732  0.00  0.00     0.217 HD
ENDBRANCH   8  34
BRANCH  11  36
ATOM     36  O   UNL d   1      -6.787   5.651   2.428  0.00  0.00    -0.361 OA
ATOM     37  H   UNL d   1      -6.397   5.942   2.044  0.00  0.00     0.217 HD
ENDBRANCH  11  36
TORSDOF 9
ENDMDL
MODEL 3
REMARK VINA RESULT:    -7.932     15.477     18.984
REMARK INTER + INTRA:           1.755
REMARK INTER:                 -10.692
REMARK INTRA:                  12.447
REMARK UNBOUND:                12.469
REMARK  9 active torsions:
REMARK  status: ('A' for Active; 'I' for Inactive)
REMARK    1  A    between atoms: C_15  and  O_2 
REMARK    2  A    between atoms: O_2  and  C_17 
REMARK    3  A    between atoms: C_11  and  O_3 
REMARK    4  A    between atoms: C_12  and  O_4 
REMARK    5  A    between atoms: C_13  and  O_5 
REMARK    6  A    between atoms: O_8  and  C_23 
REMARK    7  A    between atoms: O_9  and  C_28 
REMARK    8  A    between atoms: O_10  and  C_31 
REMARK    9  A    between atoms: C_18  and  C_22 
ROOT
ATOM      1  O   UNL d   1      11.491  -3.334  -2.145  0.00  0.00    -0.306 OA
ATOM      2  O   UNL d   1      11.837  -1.298   0.030  0.00  0.00    -0.284 OA
ATOM      3  C   UNL d   1      12.470  -2.601  -0.919  0.00  0.00     0.157 A 
ATOM      4  C   UNL d   1      12.354  -3.279  -1.644  0.00  0.00     0.123 A 
ATOM      5  C   UNL d   1      11.721  -1.976  -0.695  0.00  0.00     0.223 A 
ATOM      6  C   UNL d   1      10.858  -2.031  -1.196  0.00  0.00     0.084 A 
ATOM      7  C   UNL d   1      10.742  -2.710  -1.921  0.00  0.00     0.096 A 
ATOM      8  C   UNL d   1      10.087  -1.374  -0.951  0.00  0.00     0.085 A 
ATOM      9  C   UNL d   1       9.848  -2.779  -2.452  0.00  0.00     0.075 A 
ATOM     10  C   UNL d   1       9.184  -1.425  -1.469  0.00  0.00     0.074 A 
ATOM     11  C   UNL d   1       9.064  -2.132  -2.224  0.00  0.00     0.071 A 
ENDROOT
BRANCH   3  12
ATOM     12  O   UNL d   1      13.334  -2.546  -0.418  0.00  0.00    -0.311 OA
BRANCH  12  13
ATOM     13  C   UNL d   1      13.924  -1.746  -0.525  0.00  0.00     0.298 A 
ATOM     14  O   UNL d   1      13.948  -1.255  -1.396  0.00  0.00    -0.351 OA
ATOM     15  C   UNL d   1      14.538  -0.455  -1.504  0.00  0.00     0.152 A 
ATOM     16  C   UNL d   1      15.105  -0.146  -0.740  0.00  0.00     0.178 A 
ATOM     17  C   UNL d   1      14.562   0.036  -2.375  0.00  0.00     0.042 C 
ATOM     18  C   UNL d   1      15.081  -0.637   0.131  0.00  0.00     0.183 A 
ATOM     19  C   UNL d   1      14.491  -1.437   0.238  0.00  0.00     0.205 A 
BRANCH  16  20
ATOM     20  O   UNL d   1      15.695   0.654  -0.847  0.00  0.00    -0.390 OA
ATOM     21  H   UNL d   1      15.501   1.211  -0.654  0.00  0.00     0.210 HD
ENDBRANCH  16  20
BRANCH  18  22
ATOM     22  O   UNL d   1      15.648  -0.328   0.895  0.00  0.00    -0.390 OA
ATOM     23  H   UNL d   1      16.189  -0.045   0.785  0.00  0.00     0.210 HD
ENDBRANCH  18  22
BRANCH  19  24
ATOM     24  O   UNL d   1      14.467  -1.928   1.109  0.00  0.00    -0.388 OA
ATOM     25  H   UNL d   1      14.421  -1.613   1.641  0.00  0.00     0.210 HD
ENDBRANCH  19  24
ENDBRANCH  12  13
ENDBRANCH   3  12
BRANCH   4  26
ATOM     26  C   UNL d   1      13.103  -3.904  -1.868  0.00  0.00     0.001 A 
ATOM     27  C   UNL d   1      13.625  -3.776  -2.712  0.00  0.00     0.017 A 
ATOM     28  C   UNL d   1      14.374  -4.400  -2.936  0.00  0.00     0.037 A 
ATOM     29  C   UNL d   1      14.600  -5.152  -2.317  0.00  0.00     0.065 A 
ATOM     30  C   UNL d   1      14.078  -5.280  -1.474  0.00  0.00     0.037 A 
ATOM     31  C   UNL d   1      13.329  -4.656  -1.249  0.00  0.00     0.017 A 
BRANCH  29  32
ATOM     32  O   UNL d   1      15.348  -5.776  -2.541  0.00  0.00    -0.361 OA
ATOM     33  H   UNL d   1      15.878  -5.554  -2.774  0.00  0.00     0.217 HD
ENDBRANCH  29  32
ENDBRANCH   4  26
BRANCH   8  34
ATOM     34  O   UNL d   1      10.213  -0.699  -0.224  0.00  0.00    -0.360 OA
ATOM     35  H   UNL d   1      10.718  -0.722   0.136  0.00  0.00     0.217 HD
ENDBRANCH   8  34
BRANCH  11  36
ATOM     36  O   UNL d   1       8.202  -2.190  -2.727  0.00  0.00    -0.361 OA
ATOM     37  H   UNL d   1       7.663  -2.134  -2.426  0.00  0.00     0.217 HD
ENDBRANCH  11  36
TORSDOF 9
ENDMDL
MODEL 4
REMARK VINA RESULT:    -7.852      1.504      2.425
REMARK INTER + INTRA:           1.863
REMARK INTER:                 -10.590
REMARK INTRA:                  12.453
REMARK UNBOUND:                12.469
REMARK  9 active torsions:
REMARK  status: ('A' for Active; 'I' for Inactive)
REMARK    1  A    between atoms: C_15  and  O_2 
REMARK    2  A    between atoms: O_2  and  C_17 
REMARK    3  A    between atoms: C_11  and  O_3 
REMARK    4  A    between atoms: C_12  and  O_4 
REMARK    5  A    between atoms: C_13  and  O_5 
REMARK    6  A    between atoms: O_8  and  C_23 
REMARK    7  A    between atoms: O_9  and  C_28 
REMARK    8  A    between atoms: O_10  and  C_31 
REMARK    9  A    between atoms: C_18  and  C_22 
ROOT
ATOM      1  O   UNL d   1      -5.821   3.211   4.203  0.00  0.00    -0.306 OA
ATOM      2  O   UNL d   1      -7.621   1.179   5.481  0.00  0.00    -0.284 OA
ATOM      3  C   UNL d   1      -6.279   1.559   4.453  0.00  0.00     0.157 A 
ATOM      4  C   UNL d   1      -5.679   2.236   4.027  0.00  0.00     0.123 A 
ATOM      5  C   UNL d   1      -7.021   1.856   5.055  0.00  0.00     0.223 A 
ATOM      6  C   UNL d   1      -7.163   2.830   5.230  0.00  0.00     0.084 A 
ATOM      7  C   UNL d   1      -6.563   3.507   4.804  0.00  0.00     0.096 A 
ATOM      8  C   UNL d   1      -7.940   3.124   5.859  0.00  0.00     0.085 A 
ATOM      9  C   UNL d   1      -6.699   4.526   4.977  0.00  0.00     0.075 A 
ATOM     10  C   UNL d   1      -8.094   4.138   6.046  0.00  0.00     0.074 A 
ATOM     11  C   UNL d   1      -7.469   4.843   5.603  0.00  0.00     0.071 A 
ENDROOT
BRANCH   3  12
ATOM     12  O   UNL d   1      -6.137   0.585   4.278  0.00  0.00    -0.311 OA
BRANCH  12  13
ATOM     13  C   UNL d   1      -5.857  -0.022   5.022  0.00  0.00     0.298 A 
ATOM     14  O   UNL d   1      -5.297   0.332   5.771  0.00  0.00    -0.351 OA
ATOM     15  C   UNL d   1      -5.017  -0.274   6.516  0.00  0.00     0.152 A 
ATOM     16  C   UNL d   1      -5.297  -1.234   6.510  0.00  0.00     0.178 A 
ATOM     17  C   UNL d   1      -4.457   0.080   7.265  0.00  0.00     0.042 C 
ATOM     18  C   UNL d   1      -5.856  -1.588   5.761  0.00  0.00     0.183 A 
ATOM     19  C   UNL d   1      -6.137  -0.982   5.017  0.00  0.00     0.205 A 
BRANCH  16  20
ATOM     20  O   UNL d   1      -5.016  -1.841   7.255  0.00  0.00    -0.390 OA
ATOM     21  H   UNL d   1      -5.324  -2.370   7.356  0.00  0.00     0.210 HD
ENDBRANCH  16  20
BRANCH  18  22
ATOM     22  O   UNL d   1      -6.136  -2.548   5.756  0.00  0.00    -0.390 OA
ATOM     23  H   UNL d   1      -5.877  -2.948   6.153  0.00  0.00     0.210 HD
ENDBRANCH  18  22
BRANCH  19  24
ATOM     24  O   UNL d   1      -6.696  -1.335   4.268  0.00  0.00    -0.388 OA
ATOM     25  H   UNL d   1      -6.591  -1.147   3.686  0.00  0.00     0.210 HD
ENDBRANCH  19  24
ENDBRANCH  12  13
ENDBRANCH   3  12
BRANCH   4  26
ATOM     26  C   UNL d   1      -4.938   1.939   3.426  0.00  0.00     0.001 A 
ATOM     27  C   UNL d   1      -5.142   1.614   2.503  0.00  0.00     0.017 A 
ATOM     28  C   UNL d   1      -4.401   1.317   1.901  0.00  0.00     0.037 A 
ATOM     29  C   UNL d   1      -3.454   1.346   2.223  0.00  0.00     0.065 A 
ATOM     30  C   UNL d   1      -3.250   1.671   3.146  0.00  0.00     0.037 A 
ATOM     31  C   UNL d   1      -3.991   1.968   3.748  0.00  0.00     0.017 A 
BRANCH  29  32
ATOM     32  O   UNL d   1      -2.712   1.049   1.622  0.00  0.00    -0.361 OA
ATOM     33  H   UNL d   1      -2.149   1.302   1.677  0.00  0.00     0.217 HD
ENDBRANCH  29  32
ENDBRANCH   4  26
BRANCH   8  34
ATOM     34  O   UNL d   1      -8.534   2.438   6.279  0.00  0.00    -0.360 OA
ATOM     35  H   UNL d   1      -8.446   1.836   6.158  0.00  0.00     0.217 HD
ENDBRANCH   8  34
BRANCH  11  36
ATOM     36  O   UNL d   1      -7.608   5.818   5.775  0.00  0.00    -0.361 OA
ATOM     37  H   UNL d   1      -7.271   6.107   6.208  0.00  0.00     0.217 HD
ENDBRANCH  11  36
TORSDOF 9
ENDMDL
MODEL 5
REMARK VINA RESULT:    -7.787      1.916      3.522
REMARK INTER + INTRA:           1.950
REMARK INTER:                 -10.531
REMARK INTRA:                  12.482
REMARK UNBOUND:                12.469
REMARK  9 active torsions:
REMARK  status: ('A' for Active; 'I' for Inactive)
REMARK    1  A    between atoms: C_15  and  O_2 
REMARK    2  A    between atoms: O_2  and  C_17 
REMARK    3  A    between atoms: C_11  and  O_3 
REMARK    4  A    between atoms: C_12  and  O_4 
REMARK    5  A    between atoms: C_13  and  O_5 
REMARK    6  A    between atoms: O_8  and  C_23 
REMARK    7  A    between atoms: O_9  and  C_28 
REMARK    8  A    between atoms: O_10  and  C_31 
REMARK    9  A    between atoms: C_18  and  C_22 
ROOT
ATOM      1  O   UNL d   1      -6.228   2.464   4.152  0.00  0.00    -0.306 OA
ATOM      2  O   UNL d   1      -5.207  -0.195   5.095  0.00  0.00    -0.284 OA
ATOM      3  C   UNL d   1      -5.002   1.240   4.147  0.00  0.00     0.157 A 
ATOM      4  C   UNL d   1      -5.342   2.126   3.832  0.00  0.00     0.123 A 
ATOM      5  C   UNL d   1      -5.547   0.691   4.781  0.00  0.00     0.223 A 
ATOM      6  C   UNL d   1      -6.433   1.029   5.100  0.00  0.00     0.084 A 
ATOM      7  C   UNL d   1      -6.773   1.915   4.786  0.00  0.00     0.096 A 
ATOM      8  C   UNL d   1      -6.989   0.446   5.760  0.00  0.00     0.085 A 
ATOM      9  C   UNL d   1      -7.694   2.280   5.110  0.00  0.00     0.075 A 
ATOM     10  C   UNL d   1      -7.913   0.791   6.098  0.00  0.00     0.074 A 
ATOM     11  C   UNL d   1      -8.267   1.714   5.770  0.00  0.00     0.071 A 
ENDROOT
BRANCH   3  12
ATOM     12  O   UNL d   1      -4.117   0.902   3.827  0.00  0.00    -0.311 OA
BRANCH  12  13
ATOM     13  C   UNL d   1      -3.333   0.890   4.448  0.00  0.00     0.298 A 
ATOM     14  O   UNL d   1      -3.358   1.420   5.296  0.00  0.00    -0.351 OA
ATOM     15  C   UNL d   1      -2.574   1.407   5.916  0.00  0.00     0.152 A 
ATOM     16  C   UNL d   1      -1.765   0.865   5.689  0.00  0.00     0.178 A 
ATOM     17  C   UNL d   1      -2.599   1.937   6.764  0.00  0.00     0.042 C 
ATOM     18  C   UNL d   1      -1.740   0.335   4.842  0.00  0.00     0.183 A 
ATOM     19  C   UNL d   1      -2.524   0.347   4.221  0.00  0.00     0.205 A 
BRANCH  16  20
ATOM     20  O   UNL d   1      -0.981   0.852   6.310  0.00  0.00    -0.390 OA
ATOM     21  H   UNL d   1      -0.841   0.335   6.623  0.00  0.00     0.210 HD
ENDBRANCH  16  20
BRANCH  18  22
ATOM     22  O   UNL d   1      -0.931  -0.208   4.615  0.00  0.00    -0.390 OA
ATOM     23  H   UNL d   1      -0.753  -0.266   4.024  0.00  0.00     0.210 HD
ENDBRANCH  18  22
BRANCH  19  24
ATOM     24  O   UNL d   1      -2.499  -0.182   3.373  0.00  0.00    -0.388 OA
ATOM     25  H   UNL d   1      -2.894  -0.051   2.914  0.00  0.00     0.210 HD
ENDBRANCH  19  24
ENDBRANCH  12  13
ENDBRANCH   3  12
BRANCH   4  26
ATOM     26  C   UNL d   1      -4.797   2.675   3.198  0.00  0.00     0.001 A 
ATOM     27  C   UNL d   1      -4.747   2.420   2.232  0.00  0.00     0.017 A 
ATOM     28  C   UNL d   1      -4.202   2.969   1.599  0.00  0.00     0.037 A 
ATOM     29  C   UNL d   1      -3.707   3.772   1.930  0.00  0.00     0.065 A 
ATOM     30  C   UNL d   1      -3.757   4.026   2.896  0.00  0.00     0.037 A 
ATOM     31  C   UNL d   1      -4.302   3.478   3.530  0.00  0.00     0.017 A 
BRANCH  29  32
ATOM     32  O   UNL d   1      -3.162   4.321   1.296  0.00  0.00    -0.361 OA
ATOM     33  H   UNL d   1      -2.566   4.181   1.199  0.00  0.00     0.217 HD
ENDBRANCH  29  32
ENDBRANCH   4  26
BRANCH   8  34
ATOM     34  O   UNL d   1      -6.639  -0.438   6.068  0.00  0.00    -0.360 OA
ATOM     35  H   UNL d   1      -6.984  -0.797   6.439  0.00  0.00     0.217 HD
ENDBRANCH   8  34
BRANCH  11  36
ATOM     36  O   UNL d   1      -9.152   2.055   6.087  0.00  0.00    -0.361 OA
ATOM     37  H   UNL d   1      -9.676   1.788   5.890  0.00  0.00     0.217 HD
ENDBRANCH  11  36
TORSDOF 9
ENDMDL
