MODEL 1
REMARK VINA RESULT:   -10.380      0.000      0.000
REMARK INTER + INTRA:          -5.364
REMARK INTER:                 -13.881
REMARK INTRA:                   8.517
REMARK UNBOUND:                 8.656
REMARK  9 active torsions:
REMARK  status: ('A' for Active; 'I' for Inactive)
REMARK    1  A    between atoms: O_3  and  C_17 
REMARK    2  A    between atoms: O_4  and  C_18 
REMARK    3  A    between atoms: O_5  and  C_19 
REMARK    4  A    between atoms: O_7  and  C_32 
REMARK    5  A    between atoms: O_9  and  C_36 
REMARK    6  A    between atoms: O_10  and  C_40 
REMARK    7  A    between atoms: C_11  and  C_13 
REMARK    8  A    between atoms: C_15  and  C_20 
REMARK    9  A    between atoms: C_22  and  C_29 
ROOT
ATOM      1  O   UNL d   1      -4.650   2.726   3.464  0.00  0.00    -0.308 OA
ATOM      2  O   UNL d   1      -5.232   4.704   1.191  0.00  0.00    -0.287 OA
ATOM      3  C   UNL d   1      -6.045   3.369   4.324  0.00  0.00     0.045 A 
ATOM      4  C   UNL d   1      -5.455   3.385   3.516  0.00  0.00     0.107 A 
ATOM      5  C   UNL d   1      -5.641   4.028   2.774  0.00  0.00     0.082 A 
ATOM      6  C   UNL d   1      -6.822   3.995   4.388  0.00  0.00     0.082 A 
ATOM      7  C   UNL d   1      -6.418   4.655   2.838  0.00  0.00     0.085 A 
ATOM      8  C   UNL d   1      -7.008   4.638   3.645  0.00  0.00     0.075 A 
ATOM      9  C   UNL d   1      -4.031   2.738   2.626  0.00  0.00     0.090 A 
ATOM     10  C   UNL d   1      -5.036   4.057   1.927  0.00  0.00     0.190 A 
ATOM     11  C   UNL d   1      -4.225   3.408   1.852  0.00  0.00     0.094 A 
ENDROOT
BRANCH   3  12
ATOM     12  C   UNL d   1      -5.858   2.726   5.066  0.00  0.00     0.014 A 
ATOM     13  C   UNL d   1      -6.293   1.825   5.069  0.00  0.00     0.029 A 
ATOM     14  C   UNL d   1      -6.106   1.182   5.812  0.00  0.00    -0.001 A 
ATOM     15  C   UNL d   1      -5.485   1.439   6.552  0.00  0.00     0.017 A 
ATOM     16  C   UNL d   1      -5.050   2.340   6.549  0.00  0.00     0.038 A 
ATOM     17  C   UNL d   1      -5.237   2.983   5.806  0.00  0.00     0.076 A 
BRANCH  14  18
ATOM     18  C   UNL d   1      -6.541   0.281   5.814  0.00  0.00     0.090 A 
ATOM     19  O   UNL d   1      -7.467   0.174   6.176  0.00  0.00    -0.309 OA
ATOM     20  C   UNL d   1      -7.902  -0.726   6.179  0.00  0.00     0.095 A 
ATOM     21  C   UNL d   1      -7.411  -1.520   5.820  0.00  0.00     0.081 A 
ATOM     22  C   UNL d   1      -8.868  -0.822   6.559  0.00  0.00     0.075 A 
ATOM     23  C   UNL d   1      -6.485  -1.413   5.458  0.00  0.00     0.190 A 
ATOM     24  C   UNL d   1      -7.851  -2.464   5.816  0.00  0.00     0.085 A 
ATOM     25  O   UNL d   1      -5.993  -2.206   5.099  0.00  0.00    -0.287 OA
ATOM     26  C   UNL d   1      -6.050  -0.512   5.455  0.00  0.00     0.094 A 
ATOM     27  C   UNL d   1      -8.815  -2.583   6.191  0.00  0.00     0.074 A 
ATOM     28  C   UNL d   1      -9.327  -1.757   6.565  0.00  0.00     0.071 A 
BRANCH  24  29
ATOM     29  O   UNL d   1      -7.350  -3.250   5.455  0.00  0.00    -0.360 OA
ATOM     30  H   UNL d   1      -6.752  -3.330   5.598  0.00  0.00     0.217 HD
ENDBRANCH  24  29
BRANCH  28  31
ATOM     31  O   UNL d   1     -10.254  -1.860   6.927  0.00  0.00    -0.361 OA
ATOM     32  H   UNL d   1     -10.712  -1.501   6.714  0.00  0.00     0.217 HD
ENDBRANCH  28  31
ENDBRANCH  14  18
BRANCH  17  33
ATOM     33  O   UNL d   1      -4.802   3.883   5.804  0.00  0.00    -0.360 OA
ATOM     34  H   UNL d   1      -4.249   3.960   5.534  0.00  0.00     0.217 HD
ENDBRANCH  17  33
ENDBRANCH   3  12
BRANCH   6  35
ATOM     35  O   UNL d   1      -7.412   3.979   5.195  0.00  0.00    -0.360 OA
ATOM     36  H   UNL d   1      -8.017   4.101   5.139  0.00  0.00     0.217 HD
ENDBRANCH   6  35
BRANCH   9  37
ATOM     37  C   UNL d   1      -3.255   2.109   2.566  0.00  0.00    -0.002 A 
ATOM     38  C   UNL d   1      -2.376   2.359   2.974  0.00  0.00     0.017 A 
ATOM     39  C   UNL d   1      -1.601   1.732   2.914  0.00  0.00     0.037 A 
ATOM     40  C   UNL d   1      -1.703   0.854   2.446  0.00  0.00     0.065 A 
ATOM     41  C   UNL d   1      -2.581   0.604   2.038  0.00  0.00     0.037 A 
ATOM     42  C   UNL d   1      -3.357   1.232   2.098  0.00  0.00     0.017 A 
BRANCH  40  43
ATOM     43  O   UNL d   1      -0.927   0.226   2.385  0.00  0.00    -0.361 OA
ATOM     44  H   UNL d   1      -0.416   0.330   2.722  0.00  0.00     0.217 HD
ENDBRANCH  40  43
ENDBRANCH   9  37
BRANCH   7  45
ATOM     45  O   UNL d   1      -6.605   5.298   2.096  0.00  0.00    -0.360 OA
ATOM     46  H   UNL d   1      -6.149   5.469   1.712  0.00  0.00     0.217 HD
ENDBRANCH   7  45
TORSDOF 9
ENDMDL
MODEL 2
REMARK VINA RESULT:   -10.266      0.617      1.491
REMARK INTER + INTRA:          -5.211
REMARK INTER:                 -13.911
REMARK INTRA:                   8.699
REMARK UNBOUND:                 8.656
REMARK  9 active torsions:
REMARK  status: ('A' for Active; 'I' for Inactive)
REMARK    1  A    between atoms: O_3  and  C_17 
REMARK    2  A    between atoms: O_4  and  C_18 
REMARK    3  A    between atoms: O_5  and  C_19 
REMARK    4  A    between atoms: O_7  and  C_32 
REMARK    5  A    between atoms: O_9  and  C_36 
REMARK    6  A    between atoms: O_10  and  C_40 
REMARK    7  A    between atoms: C_11  and  C_13 
REMARK    8  A    between atoms: C_15  and  C_20 
REMARK    9  A    between atoms: C_22  and  C_29 
ROOT
ATOM      1  O   UNL d   1      -4.730   2.609   3.603  0.00  0.00    -0.308 OA
ATOM      2  O   UNL d   1      -5.261   4.606   1.334  0.00  0.00    -0.287 OA
ATOM      3  C   UNL d   1      -6.102   3.292   4.469  0.00  0.00     0.045 A 
ATOM      4  C   UNL d   1      -5.515   3.291   3.660  0.00  0.00     0.107 A 
ATOM      5  C   UNL d   1      -5.685   3.941   2.918  0.00  0.00     0.082 A 
ATOM      6  C   UNL d   1      -6.859   3.941   4.537  0.00  0.00     0.082 A 
ATOM      7  C   UNL d   1      -6.442   4.590   2.986  0.00  0.00     0.085 A 
ATOM      8  C   UNL d   1      -7.029   4.590   3.796  0.00  0.00     0.075 A 
ATOM      9  C   UNL d   1      -4.114   2.603   2.763  0.00  0.00     0.090 A 
ATOM     10  C   UNL d   1      -5.082   3.952   2.069  0.00  0.00     0.190 A 
ATOM     11  C   UNL d   1      -4.291   3.279   1.991  0.00  0.00     0.094 A 
ENDROOT
BRANCH   3  12
ATOM     12  C   UNL d   1      -5.932   2.643   5.211  0.00  0.00     0.014 A 
ATOM     13  C   UNL d   1      -6.436   1.780   5.245  0.00  0.00     0.029 A 
ATOM     14  C   UNL d   1      -6.266   1.131   5.987  0.00  0.00    -0.001 A 
ATOM     15  C   UNL d   1      -5.591   1.344   6.693  0.00  0.00     0.017 A 
ATOM     16  C   UNL d   1      -5.087   2.207   6.659  0.00  0.00     0.038 A 
ATOM     17  C   UNL d   1      -5.257   2.856   5.917  0.00  0.00     0.076 A 
BRANCH  14  18
ATOM     18  C   UNL d   1      -6.770   0.268   6.021  0.00  0.00     0.090 A 
ATOM     19  O   UNL d   1      -6.293  -0.597   5.860  0.00  0.00    -0.309 OA
ATOM     20  C   UNL d   1      -6.797  -1.460   5.895  0.00  0.00     0.095 A 
ATOM     21  C   UNL d   1      -7.778  -1.458   6.090  0.00  0.00     0.081 A 
ATOM     22  C   UNL d   1      -6.287  -2.352   5.725  0.00  0.00     0.075 A 
ATOM     23  C   UNL d   1      -8.255  -0.594   6.251  0.00  0.00     0.190 A 
ATOM     24  C   UNL d   1      -8.317  -2.349   6.130  0.00  0.00     0.085 A 
ATOM     25  O   UNL d   1      -9.235  -0.592   6.446  0.00  0.00    -0.287 OA
ATOM     26  C   UNL d   1      -7.750   0.269   6.217  0.00  0.00     0.094 A 
ATOM     27  C   UNL d   1      -7.827  -3.254   5.963  0.00  0.00     0.074 A 
ATOM     28  C   UNL d   1      -6.805  -3.255   5.760  0.00  0.00     0.071 A 
BRANCH  24  29
ATOM     29  O   UNL d   1      -9.297  -2.336   6.326  0.00  0.00    -0.360 OA
ATOM     30  H   UNL d   1      -9.603  -2.869   6.412  0.00  0.00     0.217 HD
ENDBRANCH  24  29
BRANCH  28  31
ATOM     31  O   UNL d   1      -6.325  -4.118   5.598  0.00  0.00    -0.361 OA
ATOM     32  H   UNL d   1      -6.621  -4.591   5.328  0.00  0.00     0.217 HD
ENDBRANCH  28  31
ENDBRANCH  14  18
BRANCH  17  33
ATOM     33  O   UNL d   1      -4.753   3.719   5.883  0.00  0.00    -0.360 OA
ATOM     34  H   UNL d   1      -5.010   4.218   5.619  0.00  0.00     0.217 HD
ENDBRANCH  17  33
ENDBRANCH   3  12
BRANCH   6  35
ATOM     35  O   UNL d   1      -7.446   3.942   5.347  0.00  0.00    -0.360 OA
ATOM     36  H   UNL d   1      -7.392   3.491   5.769  0.00  0.00     0.217 HD
ENDBRANCH   6  35
BRANCH   9  37
ATOM     37  C   UNL d   1      -3.358   1.951   2.699  0.00  0.00    -0.002 A 
ATOM     38  C   UNL d   1      -3.380   1.227   2.010  0.00  0.00     0.017 A 
ATOM     39  C   UNL d   1      -2.624   0.575   1.945  0.00  0.00     0.037 A 
ATOM     40  C   UNL d   1      -1.846   0.648   2.570  0.00  0.00     0.065 A 
ATOM     41  C   UNL d   1      -1.824   1.373   3.259  0.00  0.00     0.037 A 
ATOM     42  C   UNL d   1      -2.581   2.025   3.323  0.00  0.00     0.017 A 
BRANCH  40  43
ATOM     43  O   UNL d   1      -1.090  -0.003   2.506  0.00  0.00    -0.361 OA
ATOM     44  H   UNL d   1      -0.667  -0.033   2.959  0.00  0.00     0.217 HD
ENDBRANCH  40  43
ENDBRANCH   9  37
BRANCH   7  45
ATOM     45  O   UNL d   1      -6.612   5.239   2.245  0.00  0.00    -0.360 OA
ATOM     46  H   UNL d   1      -7.035   5.687   2.316  0.00  0.00     0.217 HD
ENDBRANCH   7  45
TORSDOF 9
ENDMDL
MODEL 3
REMARK VINA RESULT:   -10.046     18.531     21.954
REMARK INTER + INTRA:          -4.914
REMARK INTER:                 -14.274
REMARK INTRA:                   9.360
REMARK UNBOUND:                 8.656
REMARK  9 active torsions:
REMARK  status: ('A' for Active; 'I' for Inactive)
REMARK    1  A    between atoms: O_3  and  C_17 
REMARK    2  A    between atoms: O_4  and  C_18 
REMARK    3  A    between atoms: O_5  and  C_19 
REMARK    4  A    between atoms: O_7  and  C_32 
REMARK    5  A    between atoms: O_9  and  C_36 
REMARK    6  A    between atoms: O_10  and  C_40 
REMARK    7  A    between atoms: C_11  and  C_13 
REMARK    8  A    between atoms: C_15  and  C_20 
REMARK    9  A    between atoms: C_22  and  C_29 
ROOT
ATOM      1  O   UNL d   1       3.229   0.426 -14.522  0.00  0.00    -0.308 OA
ATOM      2  O   UNL d   1       6.270   0.725 -14.246  0.00  0.00    -0.287 OA
ATOM      3  C   UNL d   1       3.421   0.514 -16.270  0.00  0.00     0.045 A 
ATOM      4  C   UNL d   1       3.839   0.521 -15.361  0.00  0.00     0.107 A 
ATOM      5  C   UNL d   1       4.830   0.618 -15.267  0.00  0.00     0.082 A 
ATOM      6  C   UNL d   1       3.994   0.604 -17.085  0.00  0.00     0.082 A 
ATOM      7  C   UNL d   1       5.403   0.708 -16.082  0.00  0.00     0.085 A 
ATOM      8  C   UNL d   1       4.985   0.701 -16.990  0.00  0.00     0.075 A 
ATOM      9  C   UNL d   1       3.657   0.433 -13.573  0.00  0.00     0.090 A 
ATOM     10  C   UNL d   1       5.278   0.627 -14.328  0.00  0.00     0.190 A 
ATOM     11  C   UNL d   1       4.689   0.534 -13.475  0.00  0.00     0.094 A 
ENDROOT
BRANCH   3  12
ATOM     12  C   UNL d   1       2.430   0.416 -16.364  0.00  0.00     0.014 A 
ATOM     13  C   UNL d   1       2.030  -0.485 -16.532  0.00  0.00     0.029 A 
ATOM     14  C   UNL d   1       1.039  -0.582 -16.626  0.00  0.00    -0.001 A 
ATOM     15  C   UNL d   1       0.449   0.222 -16.552  0.00  0.00     0.017 A 
ATOM     16  C   UNL d   1       0.849   1.122 -16.384  0.00  0.00     0.038 A 
ATOM     17  C   UNL d   1       1.840   1.220 -16.290  0.00  0.00     0.076 A 
BRANCH  14  18
ATOM     18  C   UNL d   1       0.639  -1.483 -16.793  0.00  0.00     0.090 A 
ATOM     19  O   UNL d   1       1.106  -2.306 -16.469  0.00  0.00    -0.309 OA
ATOM     20  C   UNL d   1       0.705  -3.207 -16.636  0.00  0.00     0.095 A 
ATOM     21  C   UNL d   1      -0.161  -3.285 -17.129  0.00  0.00     0.081 A 
ATOM     22  C   UNL d   1       1.203  -4.055 -16.292  0.00  0.00     0.075 A 
ATOM     23  C   UNL d   1      -0.628  -2.462 -17.454  0.00  0.00     0.190 A 
ATOM     24  C   UNL d   1      -0.590  -4.216 -17.311  0.00  0.00     0.085 A 
ATOM     25  O   UNL d   1      -1.495  -2.540 -17.946  0.00  0.00    -0.287 OA
ATOM     26  C   UNL d   1      -0.228  -1.561 -17.286  0.00  0.00     0.094 A 
ATOM     27  C   UNL d   1      -0.110  -5.078 -16.975  0.00  0.00     0.074 A 
ATOM     28  C   UNL d   1       0.793  -4.997 -16.462  0.00  0.00     0.071 A 
BRANCH  24  29
ATOM     29  O   UNL d   1      -1.457  -4.283 -17.805  0.00  0.00    -0.360 OA
ATOM     30  H   UNL d   1      -1.737  -4.833 -17.867  0.00  0.00     0.217 HD
ENDBRANCH  24  29
BRANCH  28  31
ATOM     31  O   UNL d   1       1.262  -5.817 -16.136  0.00  0.00    -0.361 OA
ATOM     32  H   UNL d   1       1.379  -5.887 -15.531  0.00  0.00     0.217 HD
ENDBRANCH  28  31
ENDBRANCH  14  18
BRANCH  17  33
ATOM     33  O   UNL d   1       2.240   2.121 -16.123  0.00  0.00    -0.360 OA
ATOM     34  H   UNL d   1       1.878   2.624 -16.111  0.00  0.00     0.217 HD
ENDBRANCH  17  33
ENDBRANCH   3  12
BRANCH   6  35
ATOM     35  O   UNL d   1       3.576   0.596 -17.993  0.00  0.00    -0.360 OA
ATOM     36  H   UNL d   1       3.655   1.079 -18.374  0.00  0.00     0.217 HD
ENDBRANCH   6  35
BRANCH   9  37
ATOM     37  C   UNL d   1       3.080   0.342 -12.761  0.00  0.00    -0.002 A 
ATOM     38  C   UNL d   1       3.499   0.264 -11.856  0.00  0.00     0.017 A 
ATOM     39  C   UNL d   1       2.924   0.173 -11.044  0.00  0.00     0.037 A 
ATOM     40  C   UNL d   1       1.928   0.162 -11.136  0.00  0.00     0.065 A 
ATOM     41  C   UNL d   1       1.508   0.240 -12.041  0.00  0.00     0.037 A 
ATOM     42  C   UNL d   1       2.085   0.331 -12.853  0.00  0.00     0.017 A 
BRANCH  40  43
ATOM     43  O   UNL d   1       1.351   0.071 -10.324  0.00  0.00    -0.361 OA
ATOM     44  H   UNL d   1       0.781   0.317 -10.319  0.00  0.00     0.217 HD
ENDBRANCH  40  43
ENDBRANCH   9  37
BRANCH   7  45
ATOM     45  O   UNL d   1       6.393   0.806 -15.988  0.00  0.00    -0.360 OA
ATOM     46  H   UNL d   1       6.683   1.289 -16.246  0.00  0.00     0.217 HD
ENDBRANCH   7  45
TORSDOF 9
ENDMDL
MODEL 4
REMARK VINA RESULT:   -10.040      1.552      3.933
REMARK INTER + INTRA:          -4.905
REMARK INTER:                 -13.500
REMARK INTRA:                   8.595
REMARK UNBOUND:                 8.656
REMARK  9 active torsions:
REMARK  status: ('A' for Active; 'I' for Inactive)
REMARK    1  A    between atoms: O_3  and  C_17 
REMARK    2  A    between atoms: O_4  and  C_18 
REMARK    3  A    between atoms: O_5  and  C_19 
REMARK    4  A    between atoms: O_7  and  C_32 
REMARK    5  A    between atoms: O_9  and  C_36 
REMARK    6  A    between atoms: O_10  and  C_40 
REMARK    7  A    between atoms: C_11  and  C_13 
REMARK    8  A    between atoms: C_15  and  C_20 
REMARK    9  A    between atoms: C_22  and  C_29 
ROOT
ATOM      1  O   UNL d   1      -4.722   2.191   4.588  0.00  0.00    -0.308 OA
ATOM      2  O   UNL d   1      -3.494   3.295   2.002  0.00  0.00    -0.287 OA
ATOM      3  C   UNL d   1      -3.641   0.807   4.461  0.00  0.00     0.045 A 
ATOM      4  C   UNL d   1      -3.968   1.676   4.088  0.00  0.00     0.107 A 
ATOM      5  C   UNL d   1      -3.570   2.039   3.245  0.00  0.00     0.082 A 
ATOM      6  C   UNL d   1      -2.918   0.302   3.991  0.00  0.00     0.082 A 
ATOM      7  C   UNL d   1      -2.846   1.533   2.776  0.00  0.00     0.085 A 
ATOM      8  C   UNL d   1      -2.520   0.665   3.149  0.00  0.00     0.075 A 
ATOM      9  C   UNL d   1      -5.067   3.096   4.206  0.00  0.00     0.090 A 
ATOM     10  C   UNL d   1      -3.899   2.942   2.845  0.00  0.00     0.190 A 
ATOM     11  C   UNL d   1      -4.653   3.474   3.328  0.00  0.00     0.094 A 
ENDROOT
BRANCH   3  12
ATOM     12  C   UNL d   1      -4.039   0.444   5.303  0.00  0.00     0.014 A 
ATOM     13  C   UNL d   1      -4.833  -0.163   5.261  0.00  0.00     0.029 A 
ATOM     14  C   UNL d   1      -5.231  -0.526   6.103  0.00  0.00    -0.001 A 
ATOM     15  C   UNL d   1      -4.835  -0.282   6.989  0.00  0.00     0.017 A 
ATOM     16  C   UNL d   1      -4.041   0.325   7.031  0.00  0.00     0.038 A 
ATOM     17  C   UNL d   1      -3.643   0.688   6.189  0.00  0.00     0.076 A 
BRANCH  14  18
ATOM     18  C   UNL d   1      -6.024  -1.133   6.061  0.00  0.00     0.090 A 
ATOM     19  O   UNL d   1      -5.895  -2.117   5.940  0.00  0.00    -0.309 OA
ATOM     20  C   UNL d   1      -6.688  -2.724   5.898  0.00  0.00     0.095 A 
ATOM     21  C   UNL d   1      -7.611  -2.347   5.975  0.00  0.00     0.081 A 
ATOM     22  C   UNL d   1      -6.538  -3.748   5.772  0.00  0.00     0.075 A 
ATOM     23  C   UNL d   1      -7.740  -1.363   6.095  0.00  0.00     0.190 A 
ATOM     24  C   UNL d   1      -8.447  -2.967   5.932  0.00  0.00     0.085 A 
ATOM     25  O   UNL d   1      -8.663  -0.985   6.173  0.00  0.00    -0.287 OA
ATOM     26  C   UNL d   1      -6.947  -0.756   6.138  0.00  0.00     0.094 A 
ATOM     27  C   UNL d   1      -8.321  -3.993   5.807  0.00  0.00     0.074 A 
ATOM     28  C   UNL d   1      -7.359  -4.387   5.727  0.00  0.00     0.071 A 
BRANCH  24  29
ATOM     29  O   UNL d   1      -9.366  -2.579   6.011  0.00  0.00    -0.360 OA
ATOM     30  H   UNL d   1      -9.539  -2.114   5.638  0.00  0.00     0.217 HD
ENDBRANCH  24  29
BRANCH  28  31
ATOM     31  O   UNL d   1      -7.226  -5.370   5.606  0.00  0.00    -0.361 OA
ATOM     32  H   UNL d   1      -6.793  -5.579   5.215  0.00  0.00     0.217 HD
ENDBRANCH  28  31
ENDBRANCH  14  18
BRANCH  17  33
ATOM     33  O   UNL d   1      -2.850   1.295   6.231  0.00  0.00    -0.360 OA
ATOM     34  H   UNL d   1      -2.753   1.643   6.735  0.00  0.00     0.217 HD
ENDBRANCH  17  33
ENDBRANCH   3  12
BRANCH   6  35
ATOM     35  O   UNL d   1      -2.591  -0.567   4.364  0.00  0.00    -0.360 OA
ATOM     36  H   UNL d   1      -2.790  -1.102   4.122  0.00  0.00     0.217 HD
ENDBRANCH   6  35
BRANCH   9  37
ATOM     37  C   UNL d   1      -5.791   3.598   4.678  0.00  0.00    -0.002 A 
ATOM     38  C   UNL d   1      -5.761   3.700   5.673  0.00  0.00     0.017 A 
ATOM     39  C   UNL d   1      -6.485   4.202   6.146  0.00  0.00     0.037 A 
ATOM     40  C   UNL d   1      -7.238   4.603   5.625  0.00  0.00     0.065 A 
ATOM     41  C   UNL d   1      -7.269   4.501   4.630  0.00  0.00     0.037 A 
ATOM     42  C   UNL d   1      -6.545   3.998   4.158  0.00  0.00     0.017 A 
BRANCH  40  43
ATOM     43  O   UNL d   1      -7.963   5.105   6.098  0.00  0.00    -0.361 OA
ATOM     44  H   UNL d   1      -7.925   5.722   6.157  0.00  0.00     0.217 HD
ENDBRANCH  40  43
ENDBRANCH   9  37
BRANCH   7  45
ATOM     45  O   UNL d   1      -2.448   1.896   1.933  0.00  0.00    -0.360 OA
ATOM     46  H   UNL d   1      -1.859   1.768   1.788  0.00  0.00     0.217 HD
ENDBRANCH   7  45
TORSDOF 9
ENDMDL
MODEL 5
REMARK VINA RESULT:   -10.003     18.144     21.462
REMARK INTER + INTRA:          -4.856
REMARK INTER:                 -13.653
REMARK INTRA:                   8.797
REMARK UNBOUND:                 8.656
REMARK  9 active torsions:
REMARK  status: ('A' for Active; 'I' for Inactive)
REMARK    1  A    between atoms: O_3  and  C_17 
REMARK    2  A    between atoms: O_4  and  C_18 
REMARK    3  A    between atoms: O_5  and  C_19 
REMARK    4  A    between atoms: O_7  and  C_32 
REMARK    5  A    between atoms: O_9  and  C_36 
REMARK    6  A    between atoms: O_10  and  C_40 
REMARK    7  A    between atoms: C_11  and  C_13 
REMARK    8  A    between atoms: C_15  and  C_20 
REMARK    9  A    between atoms: C_22  and  C_29 
ROOT
ATOM      1  O   UNL d   1       3.252  -0.007 -14.050  0.00  0.00    -0.308 OA
ATOM      2  O   UNL d   1       3.481   0.662 -11.063  0.00  0.00    -0.287 OA
ATOM      3  C   UNL d   1       1.521   0.296 -13.942  0.00  0.00     0.045 A 
ATOM      4  C   UNL d   1       2.413   0.259 -13.491  0.00  0.00     0.107 A 
ATOM      5  C   UNL d   1       2.492   0.477 -12.519  0.00  0.00     0.082 A 
ATOM      6  C   UNL d   1       0.707   0.549 -13.419  0.00  0.00     0.082 A 
ATOM      7  C   UNL d   1       1.678   0.730 -11.996  0.00  0.00     0.085 A 
ATOM      8  C   UNL d   1       0.786   0.767 -12.446  0.00  0.00     0.075 A 
ATOM      9  C   UNL d   1       4.185  -0.047 -13.587  0.00  0.00     0.090 A 
ATOM     10  C   UNL d   1       3.414   0.443 -12.037  0.00  0.00     0.190 A 
ATOM     11  C   UNL d   1       4.266   0.180 -12.574  0.00  0.00     0.094 A 
ENDROOT
BRANCH   3  12
ATOM     12  C   UNL d   1       1.443   0.078 -14.914  0.00  0.00     0.014 A 
ATOM     13  C   UNL d   1       1.189  -0.845 -15.202  0.00  0.00     0.029 A 
ATOM     14  C   UNL d   1       1.110  -1.063 -16.174  0.00  0.00    -0.001 A 
ATOM     15  C   UNL d   1       1.286  -0.357 -16.860  0.00  0.00     0.017 A 
ATOM     16  C   UNL d   1       1.540   0.567 -16.573  0.00  0.00     0.038 A 
ATOM     17  C   UNL d   1       1.618   0.784 -15.600  0.00  0.00     0.076 A 
BRANCH  14  18
ATOM     18  C   UNL d   1       0.856  -1.986 -16.462  0.00  0.00     0.090 A 
ATOM     19  O   UNL d   1       1.446  -2.761 -16.233  0.00  0.00    -0.309 OA
ATOM     20  C   UNL d   1       1.192  -3.685 -16.520  0.00  0.00     0.095 A 
ATOM     21  C   UNL d   1       0.348  -3.834 -17.036  0.00  0.00     0.081 A 
ATOM     22  C   UNL d   1       1.817  -4.482 -16.275  0.00  0.00     0.075 A 
ATOM     23  C   UNL d   1      -0.242  -3.059 -17.264  0.00  0.00     0.190 A 
ATOM     24  C   UNL d   1       0.070  -4.790 -17.341  0.00  0.00     0.085 A 
ATOM     25  O   UNL d   1      -1.086  -3.208 -17.779  0.00  0.00    -0.287 OA
ATOM     26  C   UNL d   1       0.012  -2.136 -16.977  0.00  0.00     0.094 A 
ATOM     27  C   UNL d   1       0.680  -5.602 -17.107  0.00  0.00     0.074 A 
ATOM     28  C   UNL d   1       1.559  -5.447 -16.570  0.00  0.00     0.071 A 
BRANCH  24  29
ATOM     29  O   UNL d   1      -0.776  -4.928 -17.856  0.00  0.00    -0.360 OA
ATOM     30  H   UNL d   1      -1.039  -5.489 -17.876  0.00  0.00     0.217 HD
ENDBRANCH  24  29
BRANCH  28  31
ATOM     31  O   UNL d   1       2.151  -6.219 -16.340  0.00  0.00    -0.361 OA
ATOM     32  H   UNL d   1       1.934  -6.799 -16.380  0.00  0.00     0.217 HD
ENDBRANCH  28  31
ENDBRANCH  14  18
BRANCH  17  33
ATOM     33  O   UNL d   1       1.872   1.708 -15.313  0.00  0.00    -0.360 OA
ATOM     34  H   UNL d   1       2.350   1.792 -14.928  0.00  0.00     0.217 HD
ENDBRANCH  17  33
ENDBRANCH   3  12
BRANCH   6  35
ATOM     35  O   UNL d   1      -0.185   0.586 -13.869  0.00  0.00    -0.360 OA
ATOM     36  H   UNL d   1      -0.384   1.116 -14.121  0.00  0.00     0.217 HD
ENDBRANCH   6  35
BRANCH   9  37
ATOM     37  C   UNL d   1       4.996  -0.301 -14.114  0.00  0.00    -0.002 A 
ATOM     38  C   UNL d   1       5.813   0.275 -14.082  0.00  0.00     0.017 A 
ATOM     39  C   UNL d   1       6.624   0.021 -14.608  0.00  0.00     0.037 A 
ATOM     40  C   UNL d   1       6.619  -0.808 -15.166  0.00  0.00     0.065 A 
ATOM     41  C   UNL d   1       5.802  -1.384 -15.198  0.00  0.00     0.037 A 
ATOM     42  C   UNL d   1       4.990  -1.130 -14.672  0.00  0.00     0.017 A 
BRANCH  40  43
ATOM     43  O   UNL d   1       7.430  -1.063 -15.693  0.00  0.00    -0.361 OA
ATOM     44  H   UNL d   1       7.599  -1.659 -15.735  0.00  0.00     0.217 HD
ENDBRANCH  40  43
ENDBRANCH   9  37
BRANCH   7  45
ATOM     45  O   UNL d   1       1.756   0.948 -11.023  0.00  0.00    -0.360 OA
ATOM     46  H   UNL d   1       2.201   0.683 -10.681  0.00  0.00     0.217 HD
ENDBRANCH   7  45
TORSDOF 9
ENDMDL
