MODEL 1
REMARK VINA RESULT:    -7.311      0.000      0.000
REMARK INTER + INTRA:          -5.076
REMARK INTER:                  -8.047
REMARK INTRA:                   2.971
REMARK UNBOUND:                 3.089
REMARK  2 active torsions:
REMARK  status: ('A' for Active; 'I' for Inactive)
REMARK    1  A    between atoms: O_3  and  C_17 
REMARK    2  A    between atoms: O_4  and  C_21 
ROOT
ATOM      1  O   UNL d   1      34.587  43.971  33.074  0.00  0.00    -0.323 OA
ATOM      2  O   UNL d   1      33.028  44.566  33.239  0.00  0.00    -0.323 OA
ATOM      3  N   UNL d   1      35.741  47.102  36.139  0.00  0.00    -0.400 N 
ATOM      4  C   UNL d   1      35.925  46.348  35.509  0.00  0.00     0.117 A 
ATOM      5  C   UNL d   1      36.888  45.967  35.395  0.00  0.00     0.069 A 
ATOM      6  C   UNL d   1      35.178  45.948  34.977  0.00  0.00    -0.026 A 
ATOM      7  C   UNL d   1      34.812  47.457  36.237  0.00  0.00     0.122 A 
ATOM      8  C   UNL d   1      36.509  47.528  36.699  0.00  0.00     0.160 A 
ATOM      9  C   UNL d   1      34.065  47.057  35.705  0.00  0.00     0.058 A 
ATOM     10  C   UNL d   1      34.248  46.303  35.075  0.00  0.00    -0.045 A 
ATOM     11  C   UNL d   1      37.670  46.379  35.946  0.00  0.00    -0.045 A 
ATOM     12  C   UNL d   1      37.480  47.164  36.602  0.00  0.00     0.002 A 
ATOM     13  C   UNL d   1      35.385  45.162  34.324  0.00  0.00     0.049 A 
ATOM     14  C   UNL d   1      33.461  45.897  34.528  0.00  0.00     0.047 A 
ATOM     15  C   UNL d   1      38.279  47.609  37.186  0.00  0.00     0.110 A 
ATOM     16  C   UNL d   1      38.674  45.983  35.828  0.00  0.00     0.011 A 
ATOM     17  C   UNL d   1      34.612  44.741  33.766  0.00  0.00     0.105 A 
ATOM     18  C   UNL d   1      33.644  45.110  33.869  0.00  0.00     0.105 A 
ATOM     19  C   UNL d   1      39.290  47.229  37.085  0.00  0.00     0.102 A 
ATOM     20  C   UNL d   1      39.489  46.411  36.401  0.00  0.00     0.040 A 
ATOM     21  C   UNL d   1      33.609  43.864  32.749  0.00  0.00     0.352 A 
ENDROOT
BRANCH  15  22
ATOM     22  O   UNL d   1      38.085  48.363  37.814  0.00  0.00    -0.352 OA
ATOM     23  C   UNL d   1      37.840  48.173  38.764  0.00  0.00     0.210 C 
ENDBRANCH  15  22
BRANCH  19  24
ATOM     24  O   UNL d   1      40.034  47.631  37.619  0.00  0.00    -0.353 OA
ATOM     25  C   UNL d   1      40.985  47.442  37.374  0.00  0.00     0.210 C 
ENDBRANCH  19  24
TORSDOF 2
ENDMDL
MODEL 2
REMARK VINA RESULT:    -7.253      0.985      6.036
REMARK INTER + INTRA:          -5.011
REMARK INTER:                  -8.009
REMARK INTRA:                   2.998
REMARK UNBOUND:                 3.089
REMARK  2 active torsions:
REMARK  status: ('A' for Active; 'I' for Inactive)
REMARK    1  A    between atoms: O_3  and  C_17 
REMARK    2  A    between atoms: O_4  and  C_21 
ROOT
ATOM      1  O   UNL d   1      38.264  48.496  37.430  0.00  0.00    -0.323 OA
ATOM      2  O   UNL d   1      39.747  47.724  37.547  0.00  0.00    -0.323 OA
ATOM      3  N   UNL d   1      36.913  44.822  35.148  0.00  0.00    -0.400 N 
ATOM      4  C   UNL d   1      36.787  45.727  35.555  0.00  0.00     0.117 A 
ATOM      5  C   UNL d   1      35.871  46.219  35.491  0.00  0.00     0.069 A 
ATOM      6  C   UNL d   1      37.546  46.171  36.032  0.00  0.00    -0.026 A 
ATOM      7  C   UNL d   1      37.798  44.362  35.217  0.00  0.00     0.122 A 
ATOM      8  C   UNL d   1      36.133  44.348  34.648  0.00  0.00     0.160 A 
ATOM      9  C   UNL d   1      38.557  44.806  35.694  0.00  0.00     0.058 A 
ATOM     10  C   UNL d   1      38.431  45.710  36.101  0.00  0.00    -0.045 A 
ATOM     11  C   UNL d   1      35.077  45.763  34.996  0.00  0.00    -0.045 A 
ATOM     12  C   UNL d   1      35.208  44.821  34.572  0.00  0.00     0.002 A 
ATOM     13  C   UNL d   1      37.399  47.114  36.451  0.00  0.00     0.049 A 
ATOM     14  C   UNL d   1      39.230  46.160  36.595  0.00  0.00     0.047 A 
ATOM     15  C   UNL d   1      34.395  44.327  34.051  0.00  0.00     0.110 A 
ATOM     16  C   UNL d   1      34.123  46.276  34.929  0.00  0.00     0.011 A 
ATOM     17  C   UNL d   1      38.185  47.583  36.949  0.00  0.00     0.105 A 
ATOM     18  C   UNL d   1      39.106  47.103  37.022  0.00  0.00     0.105 A 
ATOM     19  C   UNL d   1      33.432  44.820  33.971  0.00  0.00     0.102 A 
ATOM     20  C   UNL d   1      33.295  45.801  34.413  0.00  0.00     0.040 A 
ATOM     21  C   UNL d   1      39.228  48.583  37.799  0.00  0.00     0.352 A 
ENDROOT
BRANCH  15  22
ATOM     22  O   UNL d   1      34.532  43.422  33.647  0.00  0.00    -0.352 OA
ATOM     23  C   UNL d   1      34.803  43.337  32.689  0.00  0.00     0.210 C 
ENDBRANCH  15  22
BRANCH  19  24
ATOM     24  O   UNL d   1      32.675  44.373  33.494  0.00  0.00    -0.353 OA
ATOM     25  C   UNL d   1      31.731  44.614  33.716  0.00  0.00     0.210 C 
ENDBRANCH  19  24
TORSDOF 2
ENDMDL
MODEL 3
REMARK VINA RESULT:    -6.403     23.985     26.281
REMARK INTER + INTRA:          -4.062
REMARK INTER:                  -7.046
REMARK INTRA:                   2.984
REMARK UNBOUND:                 3.089
REMARK  2 active torsions:
REMARK  status: ('A' for Active; 'I' for Inactive)
REMARK    1  A    between atoms: O_3  and  C_17 
REMARK    2  A    between atoms: O_4  and  C_21 
ROOT
ATOM      1  O   UNL d   1      43.495  30.963  21.061  0.00  0.00    -0.323 OA
ATOM      2  O   UNL d   1      41.989  31.212  20.367  0.00  0.00    -0.323 OA
ATOM      3  N   UNL d   1      44.856  29.840  16.888  0.00  0.00    -0.400 N 
ATOM      4  C   UNL d   1      44.986  29.990  17.868  0.00  0.00     0.117 A 
ATOM      5  C   UNL d   1      45.915  29.840  18.314  0.00  0.00     0.069 A 
ATOM      6  C   UNL d   1      44.218  30.289  18.434  0.00  0.00    -0.026 A 
ATOM      7  C   UNL d   1      43.958  29.988  16.474  0.00  0.00     0.122 A 
ATOM      8  C   UNL d   1      45.646  29.528  16.286  0.00  0.00     0.160 A 
ATOM      9  C   UNL d   1      43.190  30.288  17.040  0.00  0.00     0.058 A 
ATOM     10  C   UNL d   1      43.320  30.438  18.020  0.00  0.00    -0.045 A 
ATOM     11  C   UNL d   1      46.720  29.528  17.730  0.00  0.00    -0.045 A 
ATOM     12  C   UNL d   1      46.585  29.371  16.710  0.00  0.00     0.002 A 
ATOM     13  C   UNL d   1      44.368  30.442  19.454  0.00  0.00     0.049 A 
ATOM     14  C   UNL d   1      42.510  30.750  18.597  0.00  0.00     0.047 A 
ATOM     15  C   UNL d   1      47.408  29.047  16.083  0.00  0.00     0.110 A 
ATOM     16  C   UNL d   1      47.688  29.371  18.194  0.00  0.00     0.011 A 
ATOM     17  C   UNL d   1      43.573  30.754  20.050  0.00  0.00     0.105 A 
ATOM     18  C   UNL d   1      42.638  30.909  19.619  0.00  0.00     0.105 A 
ATOM     19  C   UNL d   1      48.386  28.883  16.524  0.00  0.00     0.102 A 
ATOM     20  C   UNL d   1      48.527  29.046  17.587  0.00  0.00     0.040 A 
ATOM     21  C   UNL d   1      42.518  31.245  21.256  0.00  0.00     0.352 A 
ENDROOT
BRANCH  15  22
ATOM     22  O   UNL d   1      47.267  28.899  15.103  0.00  0.00    -0.352 OA
ATOM     23  C   UNL d   1      46.997  27.997  14.767  0.00  0.00     0.210 C 
ENDBRANCH  15  22
BRANCH  19  24
ATOM     24  O   UNL d   1      49.151  28.584  15.955  0.00  0.00    -0.353 OA
ATOM     25  C   UNL d   1      50.062  28.484  16.354  0.00  0.00     0.210 C 
ENDBRANCH  19  24
TORSDOF 2
ENDMDL
MODEL 4
REMARK VINA RESULT:    -6.302     17.614     18.529
REMARK INTER + INTRA:          -3.949
REMARK INTER:                  -6.926
REMARK INTRA:                   2.977
REMARK UNBOUND:                 3.089
REMARK  2 active torsions:
REMARK  status: ('A' for Active; 'I' for Inactive)
REMARK    1  A    between atoms: O_3  and  C_17 
REMARK    2  A    between atoms: O_4  and  C_21 
ROOT
ATOM      1  O   UNL d   1      29.304  37.651  20.415  0.00  0.00    -0.323 OA
ATOM      2  O   UNL d   1      28.622  37.141  21.860  0.00  0.00    -0.323 OA
ATOM      3  N   UNL d   1      27.362  41.647  21.300  0.00  0.00    -0.400 N 
ATOM      4  C   UNL d   1      27.911  41.013  20.756  0.00  0.00     0.117 A 
ATOM      5  C   UNL d   1      28.341  41.315  19.856  0.00  0.00     0.069 A 
ATOM      6  C   UNL d   1      28.053  40.076  21.073  0.00  0.00    -0.026 A 
ATOM      7  C   UNL d   1      26.955  41.344  22.162  0.00  0.00     0.122 A 
ATOM      8  C   UNL d   1      27.205  42.626  20.983  0.00  0.00     0.160 A 
ATOM      9  C   UNL d   1      27.098  40.406  22.479  0.00  0.00     0.058 A 
ATOM     10  C   UNL d   1      27.647  39.772  21.935  0.00  0.00    -0.045 A 
ATOM     11  C   UNL d   1      28.197  42.290  19.519  0.00  0.00    -0.045 A 
ATOM     12  C   UNL d   1      27.625  42.950  20.086  0.00  0.00     0.002 A 
ATOM     13  C   UNL d   1      28.628  39.427  20.495  0.00  0.00     0.049 A 
ATOM     14  C   UNL d   1      27.786  38.798  22.278  0.00  0.00     0.047 A 
ATOM     15  C   UNL d   1      27.461  43.970  19.756  0.00  0.00     0.110 A 
ATOM     16  C   UNL d   1      28.644  42.604  18.583  0.00  0.00     0.011 A 
ATOM     17  C   UNL d   1      28.781  38.448  20.818  0.00  0.00     0.105 A 
ATOM     18  C   UNL d   1      28.357  38.132  21.716  0.00  0.00     0.105 A 
ATOM     19  C   UNL d   1      27.899  44.308  18.822  0.00  0.00     0.102 A 
ATOM     20  C   UNL d   1      28.494  43.620  18.231  0.00  0.00     0.040 A 
ATOM     21  C   UNL d   1      29.205  36.845  21.058  0.00  0.00     0.352 A 
ENDROOT
BRANCH  15  22
ATOM     22  O   UNL d   1      26.910  44.596  20.308  0.00  0.00    -0.352 OA
ATOM     23  C   UNL d   1      25.924  44.663  20.156  0.00  0.00     0.210 C 
ENDBRANCH  15  22
BRANCH  19  24
ATOM     24  O   UNL d   1      27.754  45.246  18.508  0.00  0.00    -0.353 OA
ATOM     25  C   UNL d   1      28.364  45.644  17.823  0.00  0.00     0.210 C 
ENDBRANCH  19  24
TORSDOF 2
ENDMDL
MODEL 5
REMARK VINA RESULT:    -6.262     31.875     33.182
REMARK INTER + INTRA:          -3.905
REMARK INTER:                  -6.879
REMARK INTRA:                   2.974
REMARK UNBOUND:                 3.089
REMARK  2 active torsions:
REMARK  status: ('A' for Active; 'I' for Inactive)
REMARK    1  A    between atoms: O_3  and  C_17 
REMARK    2  A    between atoms: O_4  and  C_21 
ROOT
ATOM      1  O   UNL d   1      42.954  41.694   2.466  0.00  0.00    -0.323 OA
ATOM      2  O   UNL d   1      41.621  40.678   2.467  0.00  0.00    -0.323 OA
ATOM      3  N   UNL d   1      39.971  45.052   3.060  0.00  0.00    -0.400 N 
ATOM      4  C   UNL d   1      40.889  44.672   2.946  0.00  0.00     0.117 A 
ATOM      5  C   UNL d   1      41.728  45.290   2.943  0.00  0.00     0.069 A 
ATOM      6  C   UNL d   1      41.012  43.686   2.832  0.00  0.00    -0.026 A 
ATOM      7  C   UNL d   1      39.176  44.446   3.061  0.00  0.00     0.122 A 
ATOM      8  C   UNL d   1      39.829  46.076   3.179  0.00  0.00     0.160 A 
ATOM      9  C   UNL d   1      39.298  43.460   2.947  0.00  0.00     0.058 A 
ATOM     10  C   UNL d   1      40.216  43.080   2.833  0.00  0.00    -0.045 A 
ATOM     11  C   UNL d   1      41.608  46.318   3.061  0.00  0.00    -0.045 A 
ATOM     12  C   UNL d   1      40.653  46.714   3.180  0.00  0.00     0.002 A 
ATOM     13  C   UNL d   1      41.974  43.305   2.714  0.00  0.00     0.049 A 
ATOM     14  C   UNL d   1      40.328  42.051   2.716  0.00  0.00     0.047 A 
ATOM     15  C   UNL d   1      40.503  47.781   3.304  0.00  0.00     0.110 A 
ATOM     16  C   UNL d   1      42.481  46.962   3.058  0.00  0.00     0.011 A 
ATOM     17  C   UNL d   1      42.110  42.279   2.595  0.00  0.00     0.105 A 
ATOM     18  C   UNL d   1      41.281  41.648   2.596  0.00  0.00     0.105 A 
ATOM     19  C   UNL d   1      41.361  48.445   3.305  0.00  0.00     0.102 A 
ATOM     20  C   UNL d   1      42.357  48.033   3.181  0.00  0.00     0.040 A 
ATOM     21  C   UNL d   1      42.652  40.706   2.386  0.00  0.00     0.352 A 
ENDROOT
BRANCH  15  22
ATOM     22  O   UNL d   1      39.581  48.151   3.418  0.00  0.00    -0.352 OA
ATOM     23  C   UNL d   1      39.190  48.249   4.333  0.00  0.00     0.210 C 
ENDBRANCH  15  22
BRANCH  19  24
ATOM     24  O   UNL d   1      41.235  49.431   3.419  0.00  0.00    -0.353 OA
ATOM     25  C   UNL d   1      42.006  50.053   3.283  0.00  0.00     0.210 C 
ENDBRANCH  19  24
TORSDOF 2
ENDMDL
