MODEL 1
REMARK VINA RESULT:    -6.864      0.000      0.000
REMARK INTER + INTRA:           3.172
REMARK INTER:                  -9.264
REMARK INTRA:                  12.436
REMARK UNBOUND:                12.443
REMARK  9 active torsions:
REMARK  status: ('A' for Active; 'I' for Inactive)
REMARK    1  A    between atoms: C_15  and  O_2 
REMARK    2  A    between atoms: O_2  and  C_17 
REMARK    3  A    between atoms: C_11  and  O_3 
REMARK    4  A    between atoms: C_12  and  O_4 
REMARK    5  A    between atoms: C_13  and  O_5 
REMARK    6  A    between atoms: O_8  and  C_23 
REMARK    7  A    between atoms: O_9  and  C_28 
REMARK    8  A    between atoms: O_10  and  C_31 
REMARK    9  A    between atoms: C_18  and  C_22 
ROOT
ATOM      1  O   UNL d   1      41.258   3.125  15.772  0.00  0.00    -0.306 OA
ATOM      2  O   UNL d   1      39.791   3.743  13.229  0.00  0.00    -0.284 OA
ATOM      3  C   UNL d   1      40.479   4.268  14.730  0.00  0.00     0.157 A 
ATOM      4  C   UNL d   1      40.968   4.062  15.578  0.00  0.00     0.123 A 
ATOM      5  C   UNL d   1      40.280   3.537  14.077  0.00  0.00     0.223 A 
ATOM      6  C   UNL d   1      40.570   2.600  14.272  0.00  0.00     0.084 A 
ATOM      7  C   UNL d   1      41.059   2.394  15.119  0.00  0.00     0.096 A 
ATOM      8  C   UNL d   1      40.355   1.849  13.582  0.00  0.00     0.085 A 
ATOM      9  C   UNL d   1      41.367   1.422  15.336  0.00  0.00     0.075 A 
ATOM     10  C   UNL d   1      40.654   0.870  13.778  0.00  0.00     0.074 A 
ATOM     11  C   UNL d   1      41.163   0.655  14.661  0.00  0.00     0.071 A 
ENDROOT
BRANCH   3  12
ATOM     12  O   UNL d   1      40.189   5.205  14.535  0.00  0.00    -0.311 OA
BRANCH  12  13
ATOM     13  C   UNL d   1      40.614   5.715  13.787  0.00  0.00     0.298 A 
ATOM     14  O   UNL d   1      41.556   5.513  13.516  0.00  0.00    -0.351 OA
ATOM     15  C   UNL d   1      41.981   6.022  12.768  0.00  0.00     0.152 A 
ATOM     16  C   UNL d   1      41.465   6.734  12.291  0.00  0.00     0.178 A 
ATOM     17  C   UNL d   1      42.922   5.820  12.497  0.00  0.00     0.042 C 
ATOM     18  C   UNL d   1      40.524   6.936  12.562  0.00  0.00     0.183 A 
ATOM     19  C   UNL d   1      40.099   6.426  13.310  0.00  0.00     0.205 A 
BRANCH  16  20
ATOM     20  O   UNL d   1      41.890   7.244  11.543  0.00  0.00    -0.390 OA
ATOM     21  H   UNL d   1      42.208   7.762  11.663  0.00  0.00     0.210 HD
ENDBRANCH  16  20
BRANCH  18  22
ATOM     22  O   UNL d   1      40.008   7.648  12.086  0.00  0.00    -0.390 OA
ATOM     23  H   UNL d   1      39.798   7.546  11.511  0.00  0.00     0.210 HD
ENDBRANCH  18  22
BRANCH  19  24
ATOM     24  O   UNL d   1      39.158   6.628  13.582  0.00  0.00    -0.388 OA
ATOM     25  H   UNL d   1      38.722   6.715  13.149  0.00  0.00     0.210 HD
ENDBRANCH  19  24
ENDBRANCH  12  13
ENDBRANCH   3  12
BRANCH   4  26
ATOM     26  C   UNL d   1      41.167   4.792  16.230  0.00  0.00     0.001 A 
ATOM     27  C   UNL d   1      42.105   5.121  16.342  0.00  0.00     0.017 A 
ATOM     28  C   UNL d   1      42.304   5.852  16.995  0.00  0.00     0.037 A 
ATOM     29  C   UNL d   1      41.565   6.254  17.536  0.00  0.00     0.065 A 
ATOM     30  C   UNL d   1      40.627   5.926  17.424  0.00  0.00     0.037 A 
ATOM     31  C   UNL d   1      40.428   5.195  16.771  0.00  0.00     0.017 A 
BRANCH  29  32
ATOM     32  O   UNL d   1      41.764   6.985  18.189  0.00  0.00    -0.361 OA
ATOM     33  H   UNL d   1      41.334   7.158  18.601  0.00  0.00     0.217 HD
ENDBRANCH  29  32
ENDBRANCH   4  26
BRANCH   8  34
ATOM     34  O   UNL d   1      39.866   2.067  12.738  0.00  0.00    -0.360 OA
ATOM     35  H   UNL d   1      40.024   1.787  12.207  0.00  0.00     0.217 HD
ENDBRANCH   8  34
BRANCH  11  36
ATOM     36  O   UNL d   1      41.455  -0.280  14.859  0.00  0.00    -0.361 OA
ATOM     37  H   UNL d   1      41.681  -0.637  14.405  0.00  0.00     0.217 HD
ENDBRANCH  11  36
TORSDOF 9
ENDMDL
MODEL 2
REMARK VINA RESULT:    -6.460      6.428      9.163
REMARK INTER + INTRA:           3.717
REMARK INTER:                  -8.700
REMARK INTRA:                  12.417
REMARK UNBOUND:                12.443
REMARK  9 active torsions:
REMARK  status: ('A' for Active; 'I' for Inactive)
REMARK    1  A    between atoms: C_15  and  O_2 
REMARK    2  A    between atoms: O_2  and  C_17 
REMARK    3  A    between atoms: C_11  and  O_3 
REMARK    4  A    between atoms: C_12  and  O_4 
REMARK    5  A    between atoms: C_13  and  O_5 
REMARK    6  A    between atoms: O_8  and  C_23 
REMARK    7  A    between atoms: O_9  and  C_28 
REMARK    8  A    between atoms: O_10  and  C_31 
REMARK    9  A    between atoms: C_18  and  C_22 
ROOT
ATOM      1  O   UNL d   1      42.199  12.295  16.240  0.00  0.00    -0.306 OA
ATOM      2  O   UNL d   1      40.902  10.416  18.187  0.00  0.00    -0.284 OA
ATOM      3  C   UNL d   1      41.560  11.975  17.818  0.00  0.00     0.157 A 
ATOM      4  C   UNL d   1      41.992  12.602  17.169  0.00  0.00     0.123 A 
ATOM      5  C   UNL d   1      41.335  11.042  17.538  0.00  0.00     0.223 A 
ATOM      6  C   UNL d   1      41.542  10.735  16.609  0.00  0.00     0.084 A 
ATOM      7  C   UNL d   1      41.974  11.362  15.960  0.00  0.00     0.096 A 
ATOM      8  C   UNL d   1      41.301   9.761  16.331  0.00  0.00     0.085 A 
ATOM      9  C   UNL d   1      42.196  11.057  14.989  0.00  0.00     0.075 A 
ATOM     10  C   UNL d   1      41.514   9.434  15.365  0.00  0.00     0.074 A 
ATOM     11  C   UNL d   1      41.964  10.086  14.689  0.00  0.00     0.071 A 
ENDROOT
BRANCH   3  12
ATOM     12  O   UNL d   1      41.353  12.282  18.747  0.00  0.00    -0.311 OA
BRANCH  12  13
ATOM     13  C   UNL d   1      40.402  12.402  19.034  0.00  0.00     0.298 A 
ATOM     14  O   UNL d   1      39.699  12.619  18.356  0.00  0.00    -0.351 OA
ATOM     15  C   UNL d   1      38.749  12.739  18.643  0.00  0.00     0.152 A 
ATOM     16  C   UNL d   1      38.501  12.642  19.607  0.00  0.00     0.178 A 
ATOM     17  C   UNL d   1      38.046  12.955  17.966  0.00  0.00     0.042 C 
ATOM     18  C   UNL d   1      39.205  12.426  20.285  0.00  0.00     0.183 A 
ATOM     19  C   UNL d   1      40.155  12.306  19.998  0.00  0.00     0.205 A 
BRANCH  16  20
ATOM     20  O   UNL d   1      37.551  12.762  19.894  0.00  0.00    -0.390 OA
ATOM     21  H   UNL d   1      37.096  12.750  19.473  0.00  0.00     0.210 HD
ENDBRANCH  16  20
BRANCH  18  22
ATOM     22  O   UNL d   1      38.957  12.329  21.249  0.00  0.00    -0.390 OA
ATOM     23  H   UNL d   1      38.604  12.758  21.522  0.00  0.00     0.210 HD
ENDBRANCH  18  22
BRANCH  19  24
ATOM     24  O   UNL d   1      40.858  12.089  20.675  0.00  0.00    -0.388 OA
ATOM     25  H   UNL d   1      41.450  12.034  20.500  0.00  0.00     0.210 HD
ENDBRANCH  19  24
ENDBRANCH  12  13
ENDBRANCH   3  12
BRANCH   4  26
ATOM     26  C   UNL d   1      42.217  13.535  17.450  0.00  0.00     0.001 A 
ATOM     27  C   UNL d   1      42.954  13.696  18.107  0.00  0.00     0.017 A 
ATOM     28  C   UNL d   1      43.179  14.629  18.387  0.00  0.00     0.037 A 
ATOM     29  C   UNL d   1      42.668  15.401  18.010  0.00  0.00     0.065 A 
ATOM     30  C   UNL d   1      41.931  15.240  17.353  0.00  0.00     0.037 A 
ATOM     31  C   UNL d   1      41.706  14.307  17.073  0.00  0.00     0.017 A 
BRANCH  29  32
ATOM     32  O   UNL d   1      42.893  16.334  18.290  0.00  0.00    -0.361 OA
ATOM     33  H   UNL d   1      42.440  16.745  18.394  0.00  0.00     0.217 HD
ENDBRANCH  29  32
ENDBRANCH   4  26
BRANCH   8  34
ATOM     34  O   UNL d   1      40.869   9.143  16.988  0.00  0.00    -0.360 OA
ATOM     35  H   UNL d   1      40.643   8.597  16.798  0.00  0.00     0.217 HD
ENDBRANCH   8  34
BRANCH  11  36
ATOM     36  O   UNL d   1      42.173   9.783  13.759  0.00  0.00    -0.361 OA
ATOM     37  H   UNL d   1      42.177  10.192  13.294  0.00  0.00     0.217 HD
ENDBRANCH  11  36
TORSDOF 9
ENDMDL
MODEL 3
REMARK VINA RESULT:    -6.427      1.195      3.876
REMARK INTER + INTRA:           3.762
REMARK INTER:                  -8.704
REMARK INTRA:                  12.467
REMARK UNBOUND:                12.443
REMARK  9 active torsions:
REMARK  status: ('A' for Active; 'I' for Inactive)
REMARK    1  A    between atoms: C_15  and  O_2 
REMARK    2  A    between atoms: O_2  and  C_17 
REMARK    3  A    between atoms: C_11  and  O_3 
REMARK    4  A    between atoms: C_12  and  O_4 
REMARK    5  A    between atoms: C_13  and  O_5 
REMARK    6  A    between atoms: O_8  and  C_23 
REMARK    7  A    between atoms: O_9  and  C_28 
REMARK    8  A    between atoms: O_10  and  C_31 
REMARK    9  A    between atoms: C_18  and  C_22 
ROOT
ATOM      1  O   UNL d   1      40.263   3.386  12.762  0.00  0.00    -0.306 OA
ATOM      2  O   UNL d   1      41.063   2.599  15.544  0.00  0.00    -0.284 OA
ATOM      3  C   UNL d   1      41.073   3.749  14.249  0.00  0.00     0.157 A 
ATOM      4  C   UNL d   1      40.807   4.011  13.322  0.00  0.00     0.123 A 
ATOM      5  C   UNL d   1      40.797   2.861  14.617  0.00  0.00     0.223 A 
ATOM      6  C   UNL d   1      40.253   2.235  14.057  0.00  0.00     0.084 A 
ATOM      7  C   UNL d   1      39.987   2.498  13.130  0.00  0.00     0.096 A 
ATOM      8  C   UNL d   1      39.972   1.314  14.453  0.00  0.00     0.085 A 
ATOM      9  C   UNL d   1      39.420   1.857  12.534  0.00  0.00     0.075 A 
ATOM     10  C   UNL d   1      39.406   0.657  13.876  0.00  0.00     0.074 A 
ATOM     11  C   UNL d   1      39.128   0.930  12.910  0.00  0.00     0.071 A 
ENDROOT
BRANCH   3  12
ATOM     12  O   UNL d   1      41.617   4.374  14.809  0.00  0.00    -0.311 OA
BRANCH  12  13
ATOM     13  C   UNL d   1      41.198   4.839  15.590  0.00  0.00     0.298 A 
ATOM     14  O   UNL d   1      40.204   4.929  15.643  0.00  0.00    -0.351 OA
ATOM     15  C   UNL d   1      39.785   5.393  16.424  0.00  0.00     0.152 A 
ATOM     16  C   UNL d   1      40.361   5.768  17.150  0.00  0.00     0.178 A 
ATOM     17  C   UNL d   1      38.791   5.483  16.477  0.00  0.00     0.042 C 
ATOM     18  C   UNL d   1      41.356   5.678  17.097  0.00  0.00     0.183 A 
ATOM     19  C   UNL d   1      41.774   5.213  16.316  0.00  0.00     0.205 A 
BRANCH  16  20
ATOM     20  O   UNL d   1      39.943   6.232  17.931  0.00  0.00    -0.390 OA
ATOM     21  H   UNL d   1      39.479   6.634  17.840  0.00  0.00     0.210 HD
ENDBRANCH  16  20
BRANCH  18  22
ATOM     22  O   UNL d   1      41.931   6.052  17.823  0.00  0.00    -0.390 OA
ATOM     23  H   UNL d   1      41.692   6.156  18.386  0.00  0.00     0.210 HD
ENDBRANCH  18  22
BRANCH  19  24
ATOM     24  O   UNL d   1      42.769   5.123  16.263  0.00  0.00    -0.388 OA
ATOM     25  H   UNL d   1      43.054   4.655  16.553  0.00  0.00     0.210 HD
ENDBRANCH  19  24
ENDBRANCH  12  13
ENDBRANCH   3  12
BRANCH   4  26
ATOM     26  C   UNL d   1      41.084   4.899  12.954  0.00  0.00     0.001 A 
ATOM     27  C   UNL d   1      42.047   5.080  12.756  0.00  0.00     0.017 A 
ATOM     28  C   UNL d   1      42.324   5.968  12.388  0.00  0.00     0.037 A 
ATOM     29  C   UNL d   1      41.637   6.675  12.220  0.00  0.00     0.065 A 
ATOM     30  C   UNL d   1      40.674   6.494  12.418  0.00  0.00     0.037 A 
ATOM     31  C   UNL d   1      40.397   5.606  12.786  0.00  0.00     0.017 A 
BRANCH  29  32
ATOM     32  O   UNL d   1      41.914   7.563  11.852  0.00  0.00    -0.361 OA
ATOM     33  H   UNL d   1      42.094   7.611  11.261  0.00  0.00     0.217 HD
ENDBRANCH  29  32
ENDBRANCH   4  26
BRANCH   8  34
ATOM     34  O   UNL d   1      40.245   1.062  15.382  0.00  0.00    -0.360 OA
ATOM     35  H   UNL d   1      40.439   0.485  15.502  0.00  0.00     0.217 HD
ENDBRANCH   8  34
BRANCH  11  36
ATOM     36  O   UNL d   1      38.585   0.307  12.347  0.00  0.00    -0.361 OA
ATOM     37  H   UNL d   1      38.648  -0.306  12.414  0.00  0.00     0.217 HD
ENDBRANCH  11  36
TORSDOF 9
ENDMDL
MODEL 4
REMARK VINA RESULT:    -6.401     13.243     14.614
REMARK INTER + INTRA:           3.798
REMARK INTER:                  -8.599
REMARK INTRA:                  12.397
REMARK UNBOUND:                12.443
REMARK  9 active torsions:
REMARK  status: ('A' for Active; 'I' for Inactive)
REMARK    1  A    between atoms: C_15  and  O_2 
REMARK    2  A    between atoms: O_2  and  C_17 
REMARK    3  A    between atoms: C_11  and  O_3 
REMARK    4  A    between atoms: C_12  and  O_4 
REMARK    5  A    between atoms: C_13  and  O_5 
REMARK    6  A    between atoms: O_8  and  C_23 
REMARK    7  A    between atoms: O_9  and  C_28 
REMARK    8  A    between atoms: O_10  and  C_31 
REMARK    9  A    between atoms: C_18  and  C_22 
ROOT
ATOM      1  O   UNL d   1      45.388  12.431   3.452  0.00  0.00    -0.306 OA
ATOM      2  O   UNL d   1      43.699   9.985   3.043  0.00  0.00    -0.284 OA
ATOM      3  C   UNL d   1      45.241  10.707   3.358  0.00  0.00     0.157 A 
ATOM      4  C   UNL d   1      45.804  11.522   3.494  0.00  0.00     0.123 A 
ATOM      5  C   UNL d   1      44.262  10.800   3.180  0.00  0.00     0.223 A 
ATOM      6  C   UNL d   1      43.845  11.709   3.138  0.00  0.00     0.084 A 
ATOM      7  C   UNL d   1      44.408  12.524   3.274  0.00  0.00     0.096 A 
ATOM      8  C   UNL d   1      42.824  11.790   2.951  0.00  0.00     0.085 A 
ATOM      9  C   UNL d   1      43.989  13.477   3.233  0.00  0.00     0.075 A 
ATOM     10  C   UNL d   1      42.382  12.733   2.906  0.00  0.00     0.074 A 
ATOM     11  C   UNL d   1      42.969  13.582   3.048  0.00  0.00     0.071 A 
ENDROOT
BRANCH   3  12
ATOM     12  O   UNL d   1      45.658   9.799   3.399  0.00  0.00    -0.311 OA
BRANCH  12  13
ATOM     13  C   UNL d   1      45.755   9.255   2.566  0.00  0.00     0.298 A 
ATOM     14  O   UNL d   1      45.750   9.703   1.673  0.00  0.00    -0.351 OA
ATOM     15  C   UNL d   1      45.848   9.159   0.839  0.00  0.00     0.152 A 
ATOM     16  C   UNL d   1      45.950   8.166   0.900  0.00  0.00     0.178 A 
ATOM     17  C   UNL d   1      45.842   9.608  -0.054  0.00  0.00     0.042 C 
ATOM     18  C   UNL d   1      45.956   7.718   1.794  0.00  0.00     0.183 A 
ATOM     19  C   UNL d   1      45.858   8.262   2.627  0.00  0.00     0.205 A 
BRANCH  16  20
ATOM     20  O   UNL d   1      46.048   7.622   0.067  0.00  0.00    -0.390 OA
ATOM     21  H   UNL d   1      46.598   7.378  -0.082  0.00  0.00     0.210 HD
ENDBRANCH  16  20
BRANCH  18  22
ATOM     22  O   UNL d   1      46.059   6.725   1.854  0.00  0.00    -0.390 OA
ATOM     23  H   UNL d   1      45.794   6.414   2.320  0.00  0.00     0.210 HD
ENDBRANCH  18  22
BRANCH  19  24
ATOM     24  O   UNL d   1      45.864   7.813   3.520  0.00  0.00    -0.388 OA
ATOM     25  H   UNL d   1      46.378   7.532   3.723  0.00  0.00     0.210 HD
ENDBRANCH  19  24
ENDBRANCH  12  13
ENDBRANCH   3  12
BRANCH   4  26
ATOM     26  C   UNL d   1      46.784  11.429   3.672  0.00  0.00     0.001 A 
ATOM     27  C   UNL d   1      47.446  11.677   2.965  0.00  0.00     0.017 A 
ATOM     28  C   UNL d   1      48.426  11.584   3.143  0.00  0.00     0.037 A 
ATOM     29  C   UNL d   1      48.743  11.243   4.028  0.00  0.00     0.065 A 
ATOM     30  C   UNL d   1      48.081  10.996   4.735  0.00  0.00     0.037 A 
ATOM     31  C   UNL d   1      47.101  11.089   4.557  0.00  0.00     0.017 A 
BRANCH  29  32
ATOM     32  O   UNL d   1      49.723  11.150   4.206  0.00  0.00    -0.361 OA
ATOM     33  H   UNL d   1      49.926  11.073   4.786  0.00  0.00     0.217 HD
ENDBRANCH  29  32
ENDBRANCH   4  26
BRANCH   8  34
ATOM     34  O   UNL d   1      42.270  10.968   2.817  0.00  0.00    -0.360 OA
ATOM     35  H   UNL d   1      42.531  10.451   2.594  0.00  0.00     0.217 HD
ENDBRANCH   8  34
BRANCH  11  36
ATOM     36  O   UNL d   1      42.556  14.492   3.007  0.00  0.00    -0.361 OA
ATOM     37  H   UNL d   1      42.359  14.766   3.527  0.00  0.00     0.217 HD
ENDBRANCH  11  36
TORSDOF 9
ENDMDL
MODEL 5
REMARK VINA RESULT:    -6.386      1.471      4.851
REMARK INTER + INTRA:           3.818
REMARK INTER:                  -8.645
REMARK INTRA:                  12.463
REMARK UNBOUND:                12.443
REMARK  9 active torsions:
REMARK  status: ('A' for Active; 'I' for Inactive)
REMARK    1  A    between atoms: C_15  and  O_2 
REMARK    2  A    between atoms: O_2  and  C_17 
REMARK    3  A    between atoms: C_11  and  O_3 
REMARK    4  A    between atoms: C_12  and  O_4 
REMARK    5  A    between atoms: C_13  and  O_5 
REMARK    6  A    between atoms: O_8  and  C_23 
REMARK    7  A    between atoms: O_9  and  C_28 
REMARK    8  A    between atoms: O_10  and  C_31 
REMARK    9  A    between atoms: C_18  and  C_22 
ROOT
ATOM      1  O   UNL d   1      41.841   4.893  13.301  0.00  0.00    -0.306 OA
ATOM      2  O   UNL d   1      40.573   7.381  14.398  0.00  0.00    -0.284 OA
ATOM      3  C   UNL d   1      40.632   5.654  14.281  0.00  0.00     0.157 A 
ATOM      4  C   UNL d   1      41.055   4.825  13.916  0.00  0.00     0.123 A 
ATOM      5  C   UNL d   1      40.996   6.552  14.032  0.00  0.00     0.223 A 
ATOM      6  C   UNL d   1      41.781   6.620  13.417  0.00  0.00     0.084 A 
ATOM      7  C   UNL d   1      42.204   5.791  13.052  0.00  0.00     0.096 A 
ATOM      8  C   UNL d   1      42.149   7.563  13.167  0.00  0.00     0.085 A 
ATOM      9  C   UNL d   1      43.023   5.847  12.410  0.00  0.00     0.075 A 
ATOM     10  C   UNL d   1      42.967   7.642  12.527  0.00  0.00     0.074 A 
ATOM     11  C   UNL d   1      43.407   6.778  12.146  0.00  0.00     0.071 A 
ENDROOT
BRANCH   3  12
ATOM     12  O   UNL d   1      39.847   5.586  14.896  0.00  0.00    -0.311 OA
BRANCH  12  13
ATOM     13  C   UNL d   1      39.946   5.820  15.863  0.00  0.00     0.298 A 
ATOM     14  O   UNL d   1      40.857   5.878  16.272  0.00  0.00    -0.351 OA
ATOM     15  C   UNL d   1      40.957   6.112  17.239  0.00  0.00     0.152 A 
ATOM     16  C   UNL d   1      40.146   6.288  17.797  0.00  0.00     0.178 A 
ATOM     17  C   UNL d   1      41.868   6.170  17.648  0.00  0.00     0.042 C 
ATOM     18  C   UNL d   1      39.235   6.229  17.388  0.00  0.00     0.183 A 
ATOM     19  C   UNL d   1      39.136   5.995  16.421  0.00  0.00     0.205 A 
BRANCH  16  20
ATOM     20  O   UNL d   1      40.246   6.522  18.764  0.00  0.00    -0.390 OA
ATOM     21  H   UNL d   1      39.745   6.563  19.127  0.00  0.00     0.210 HD
ENDBRANCH  16  20
BRANCH  18  22
ATOM     22  O   UNL d   1      38.425   6.405  17.947  0.00  0.00    -0.390 OA
ATOM     23  H   UNL d   1      37.999   6.814  17.756  0.00  0.00     0.210 HD
ENDBRANCH  18  22
BRANCH  19  24
ATOM     24  O   UNL d   1      38.225   5.937  16.013  0.00  0.00    -0.388 OA
ATOM     25  H   UNL d   1      38.066   5.438  15.680  0.00  0.00     0.210 HD
ENDBRANCH  19  24
ENDBRANCH  12  13
ENDBRANCH   3  12
BRANCH   4  26
ATOM     26  C   UNL d   1      40.692   3.927  14.165  0.00  0.00     0.001 A 
ATOM     27  C   UNL d   1      41.174   3.360  14.832  0.00  0.00     0.017 A 
ATOM     28  C   UNL d   1      40.811   2.462  15.081  0.00  0.00     0.037 A 
ATOM     29  C   UNL d   1      39.965   2.132  14.663  0.00  0.00     0.065 A 
ATOM     30  C   UNL d   1      39.482   2.699  13.995  0.00  0.00     0.037 A 
ATOM     31  C   UNL d   1      39.846   3.596  13.746  0.00  0.00     0.017 A 
BRANCH  29  32
ATOM     32  O   UNL d   1      39.602   1.234  14.912  0.00  0.00    -0.361 OA
ATOM     33  H   UNL d   1      39.983   0.746  14.955  0.00  0.00     0.217 HD
ENDBRANCH  29  32
ENDBRANCH   4  26
BRANCH   8  34
ATOM     34  O   UNL d   1      41.718   8.385  13.539  0.00  0.00    -0.360 OA
ATOM     35  H   UNL d   1      41.127   8.369  13.725  0.00  0.00     0.217 HD
ENDBRANCH   8  34
BRANCH  11  36
ATOM     36  O   UNL d   1      44.193   6.843  11.531  0.00  0.00    -0.361 OA
ATOM     37  H   UNL d   1      44.501   7.378  11.477  0.00  0.00     0.217 HD
ENDBRANCH  11  36
TORSDOF 9
ENDMDL
