MODEL 1
REMARK VINA RESULT:    -4.530      0.000      0.000
REMARK INTER + INTRA:          -3.728
REMARK INTER:                  -5.484
REMARK INTRA:                   1.756
REMARK UNBOUND:                 1.730
REMARK  4 active torsions:
REMARK  status: ('A' for Active; 'I' for Inactive)
REMARK    1  A    between atoms: O_1  and  C_8 
REMARK    2  A    between atoms: O_2  and  C_7 
REMARK    3  A    between atoms: C_3  and  C_4 
REMARK    4  A    between atoms: C_4  and  C_10 
ROOT
ATOM      1  C   UNL d   1      49.619  -8.930   2.281  0.00  0.00    -0.052 A 
ATOM      2  C   UNL d   1      49.597  -8.642   3.238  0.00  0.00     0.046 A 
ATOM      3  C   UNL d   1      49.198  -9.796   2.010  0.00  0.00     0.010 A 
ATOM      4  C   UNL d   1      49.154  -9.218   3.924  0.00  0.00     0.099 A 
ATOM      5  C   UNL d   1      48.733 -10.084   3.653  0.00  0.00     0.101 A 
ATOM      6  C   UNL d   1      48.755 -10.373   2.696  0.00  0.00     0.040 A 
ENDROOT
BRANCH   1   7
ATOM      7  C   UNL d   1      50.062  -8.353   1.595  0.00  0.00     0.065 C 
BRANCH   7   8
ATOM      8  C   UNL d   1      49.520  -7.704   1.062  0.00  0.00    -0.032 C 
ATOM      9  C   UNL d   1      49.973  -7.069   0.437  0.00  0.00     0.007 C 
ENDBRANCH   7   8
ENDBRANCH   1   7
BRANCH   4  10
ATOM     10  O   UNL d   1      49.132  -8.930   4.881  0.00  0.00    -0.358 OA
ATOM     11  H   UNL d   1      48.728  -9.188   5.274  0.00  0.00     0.217 HD
ENDBRANCH   4  10
BRANCH   5  12
ATOM     12  O   UNL d   1      48.290 -10.661   4.340  0.00  0.00    -0.353 OA
ATOM     13  C   UNL d   1      47.495 -11.213   4.090  0.00  0.00     0.210 C 
ENDBRANCH   5  12
TORSDOF 4
ENDMDL
MODEL 2
REMARK VINA RESULT:    -4.419     20.997     21.986
REMARK INTER + INTRA:          -3.594
REMARK INTER:                  -5.289
REMARK INTRA:                   1.695
REMARK UNBOUND:                 1.730
REMARK  4 active torsions:
REMARK  status: ('A' for Active; 'I' for Inactive)
REMARK    1  A    between atoms: O_1  and  C_8 
REMARK    2  A    between atoms: O_2  and  C_7 
REMARK    3  A    between atoms: C_3  and  C_4 
REMARK    4  A    between atoms: C_4  and  C_10 
ROOT
ATOM      1  C   UNL d   1      45.004  -9.765  23.865  0.00  0.00    -0.052 A 
ATOM      2  C   UNL d   1      45.521  -8.955  23.587  0.00  0.00     0.046 A 
ATOM      3  C   UNL d   1      44.304  -9.691  24.574  0.00  0.00     0.010 A 
ATOM      4  C   UNL d   1      45.337  -8.072  24.018  0.00  0.00     0.099 A 
ATOM      5  C   UNL d   1      44.636  -7.999  24.728  0.00  0.00     0.101 A 
ATOM      6  C   UNL d   1      44.119  -8.808  25.006  0.00  0.00     0.040 A 
ENDROOT
BRANCH   1   7
ATOM      7  C   UNL d   1      45.189 -10.648  23.433  0.00  0.00     0.065 C 
BRANCH   7   8
ATOM      8  C   UNL d   1      45.942 -11.217  23.762  0.00  0.00    -0.032 C 
ATOM      9  C   UNL d   1      46.179 -12.060  23.279  0.00  0.00     0.007 C 
ENDBRANCH   7   8
ENDBRANCH   1   7
BRANCH   4  10
ATOM     10  O   UNL d   1      45.853  -7.262  23.740  0.00  0.00    -0.358 OA
ATOM     11  H   UNL d   1      46.097  -7.230  23.171  0.00  0.00     0.217 HD
ENDBRANCH   4  10
BRANCH   5  12
ATOM     12  O   UNL d   1      44.451  -7.115  25.159  0.00  0.00    -0.353 OA
ATOM     13  C   UNL d   1      43.728  -7.035  25.844  0.00  0.00     0.210 C 
ENDBRANCH   5  12
TORSDOF 4
ENDMDL
MODEL 3
REMARK VINA RESULT:    -4.319     18.909     20.510
REMARK INTER + INTRA:          -3.473
REMARK INTER:                  -5.205
REMARK INTRA:                   1.731
REMARK UNBOUND:                 1.730
REMARK  4 active torsions:
REMARK  status: ('A' for Active; 'I' for Inactive)
REMARK    1  A    between atoms: O_1  and  C_8 
REMARK    2  A    between atoms: O_2  and  C_7 
REMARK    3  A    between atoms: C_3  and  C_4 
REMARK    4  A    between atoms: C_4  and  C_10 
ROOT
ATOM      1  C   UNL d   1      48.581  11.687   2.796  0.00  0.00    -0.052 A 
ATOM      2  C   UNL d   1      48.817  11.582   3.762  0.00  0.00     0.046 A 
ATOM      3  C   UNL d   1      47.947  11.046   2.364  0.00  0.00     0.010 A 
ATOM      4  C   UNL d   1      48.419  10.836   4.296  0.00  0.00     0.099 A 
ATOM      5  C   UNL d   1      47.785  10.195   3.864  0.00  0.00     0.101 A 
ATOM      6  C   UNL d   1      47.549  10.300   2.898  0.00  0.00     0.040 A 
ENDROOT
BRANCH   1   7
ATOM      7  C   UNL d   1      48.979  12.433   2.262  0.00  0.00     0.065 C 
BRANCH   7   8
ATOM      8  C   UNL d   1      48.496  13.306   2.185  0.00  0.00    -0.032 C 
ATOM      9  C   UNL d   1      48.919  14.070   1.697  0.00  0.00     0.007 C 
ENDBRANCH   7   8
ENDBRANCH   1   7
BRANCH   4  10
ATOM     10  O   UNL d   1      48.656  10.731   5.262  0.00  0.00    -0.358 OA
ATOM     11  H   UNL d   1      49.030  10.271   5.441  0.00  0.00     0.217 HD
ENDBRANCH   4  10
BRANCH   5  12
ATOM     12  O   UNL d   1      47.387   9.449   4.398  0.00  0.00    -0.353 OA
ATOM     13  C   UNL d   1      46.494   9.076   4.147  0.00  0.00     0.210 C 
ENDBRANCH   5  12
TORSDOF 4
ENDMDL
MODEL 4
REMARK VINA RESULT:    -4.284     19.430     20.291
REMARK INTER + INTRA:          -3.431
REMARK INTER:                  -5.148
REMARK INTRA:                   1.716
REMARK UNBOUND:                 1.730
REMARK  4 active torsions:
REMARK  status: ('A' for Active; 'I' for Inactive)
REMARK    1  A    between atoms: O_1  and  C_8 
REMARK    2  A    between atoms: O_2  and  C_7 
REMARK    3  A    between atoms: C_3  and  C_4 
REMARK    4  A    between atoms: C_4  and  C_10 
ROOT
ATOM      1  C   UNL d   1      41.758   4.807  16.020  0.00  0.00    -0.052 A 
ATOM      2  C   UNL d   1      41.769   5.066  15.054  0.00  0.00     0.046 A 
ATOM      3  C   UNL d   1      41.425   3.904  16.292  0.00  0.00     0.010 A 
ATOM      4  C   UNL d   1      41.446   4.422  14.360  0.00  0.00     0.099 A 
ATOM      5  C   UNL d   1      41.113   3.519  14.632  0.00  0.00     0.101 A 
ATOM      6  C   UNL d   1      41.102   3.260  15.598  0.00  0.00     0.040 A 
ENDROOT
BRANCH   1   7
ATOM      7  C   UNL d   1      42.081   5.451  16.714  0.00  0.00     0.065 C 
BRANCH   7   8
ATOM      8  C   UNL d   1      41.423   5.937  17.289  0.00  0.00    -0.032 C 
ATOM      9  C   UNL d   1      41.720   6.720  17.835  0.00  0.00     0.007 C 
ENDBRANCH   7   8
ENDBRANCH   1   7
BRANCH   4  10
ATOM     10  O   UNL d   1      41.457   4.681  13.395  0.00  0.00    -0.358 OA
ATOM     11  H   UNL d   1      41.606   5.260  13.230  0.00  0.00     0.217 HD
ENDBRANCH   4  10
BRANCH   5  12
ATOM     12  O   UNL d   1      40.790   2.876  13.938  0.00  0.00    -0.353 OA
ATOM     13  C   UNL d   1      40.508   1.954  14.204  0.00  0.00     0.210 C 
ENDBRANCH   5  12
TORSDOF 4
ENDMDL
MODEL 5
REMARK VINA RESULT:    -4.115     18.653     19.313
REMARK INTER + INTRA:          -3.228
REMARK INTER:                  -4.990
REMARK INTRA:                   1.762
REMARK UNBOUND:                 1.730
REMARK  4 active torsions:
REMARK  status: ('A' for Active; 'I' for Inactive)
REMARK    1  A    between atoms: O_1  and  C_8 
REMARK    2  A    between atoms: O_2  and  C_7 
REMARK    3  A    between atoms: C_3  and  C_4 
REMARK    4  A    between atoms: C_4  and  C_10 
ROOT
ATOM      1  C   UNL d   1      41.807   5.270  13.631  0.00  0.00    -0.052 A 
ATOM      2  C   UNL d   1      41.817   5.322  14.630  0.00  0.00     0.046 A 
ATOM      3  C   UNL d   1      41.509   4.430  13.177  0.00  0.00     0.010 A 
ATOM      4  C   UNL d   1      41.529   4.535  15.175  0.00  0.00     0.099 A 
ATOM      5  C   UNL d   1      41.232   3.695  14.721  0.00  0.00     0.101 A 
ATOM      6  C   UNL d   1      41.221   3.642  13.722  0.00  0.00     0.040 A 
ENDROOT
BRANCH   1   7
ATOM      7  C   UNL d   1      42.095   6.057  13.086  0.00  0.00     0.065 C 
BRANCH   7   8
ATOM      8  C   UNL d   1      42.870   5.975  12.460  0.00  0.00    -0.032 C 
ATOM      9  C   UNL d   1      43.284   6.796  12.066  0.00  0.00     0.007 C 
ENDBRANCH   7   8
ENDBRANCH   1   7
BRANCH   4  10
ATOM     10  O   UNL d   1      41.539   4.587  16.173  0.00  0.00    -0.358 OA
ATOM     11  H   UNL d   1      41.022   4.737  16.481  0.00  0.00     0.217 HD
ENDBRANCH   4  10
BRANCH   5  12
ATOM     12  O   UNL d   1      40.944   2.907  15.266  0.00  0.00    -0.353 OA
ATOM     13  C   UNL d   1      40.907   1.998  14.851  0.00  0.00     0.210 C 
ENDBRANCH   5  12
TORSDOF 4
ENDMDL
