MODEL 1
REMARK VINA RESULT:    -6.082      0.000      0.000
REMARK INTER + INTRA:          -3.866
REMARK INTER:                  -7.328
REMARK INTRA:                   3.462
REMARK UNBOUND:                 3.461
REMARK  6 active torsions:
REMARK  status: ('A' for Active; 'I' for Inactive)
REMARK    1  A    between atoms: O_2  and  C_7 
REMARK    2  A    between atoms: O_3  and  C_13 
REMARK    3  A    between atoms: O_4  and  C_18 
REMARK    4  A    between atoms: O_5  and  C_19 
REMARK    5  A    between atoms: O_6  and  C_21 
REMARK    6  A    between atoms: C_8  and  C_12 
ROOT
ATOM      1  O   UNL d   1      41.646   6.333  14.643  0.00  0.00    -0.338 OA
ATOM      2  C   UNL d   1      41.650   4.738  13.968  0.00  0.00     0.156 A 
ATOM      3  C   UNL d   1      41.704   5.729  13.848  0.00  0.00     0.191 A 
ATOM      4  C   UNL d   1      41.537   4.350  14.883  0.00  0.00     0.079 A 
ATOM      5  C   UNL d   1      41.479   4.954  15.678  0.00  0.00     0.011 A 
ATOM      6  C   UNL d   1      41.533   5.946  15.558  0.00  0.00     0.081 A 
ATOM      7  C   UNL d   1      41.361   4.537  16.625  0.00  0.00     0.077 A 
ATOM      8  C   UNL d   1      41.475   6.588  16.376  0.00  0.00     0.074 A 
ATOM      9  C   UNL d   1      41.300   5.160  17.457  0.00  0.00     0.073 A 
ATOM     10  C   UNL d   1      41.357   6.192  17.332  0.00  0.00     0.071 A 
ENDROOT
BRANCH   3  11
ATOM     11  C   UNL d   1      41.817   6.116  12.933  0.00  0.00    -0.024 A 
ATOM     12  C   UNL d   1      41.014   6.312  12.370  0.00  0.00     0.049 A 
ATOM     13  C   UNL d   1      41.127   6.699  11.455  0.00  0.00     0.099 A 
ATOM     14  C   UNL d   1      42.043   6.891  11.103  0.00  0.00     0.098 A 
ATOM     15  C   UNL d   1      42.846   6.695  11.665  0.00  0.00     0.040 A 
ATOM     16  C   UNL d   1      42.733   6.307  12.580  0.00  0.00     0.013 A 
BRANCH  13  17
ATOM     17  O   UNL d   1      40.323   6.895  10.893  0.00  0.00    -0.358 OA
ATOM     18  H   UNL d   1      39.788   6.602  11.004  0.00  0.00     0.217 HD
ENDBRANCH  13  17
BRANCH  14  19
ATOM     19  O   UNL d   1      42.155   7.278  10.188  0.00  0.00    -0.358 OA
ATOM     20  H   UNL d   1      41.761   7.711   9.983  0.00  0.00     0.217 HD
ENDBRANCH  14  19
ENDBRANCH   3  11
BRANCH   2  21
ATOM     21  O   UNL d   1      41.708   4.134  13.173  0.00  0.00    -0.392 OA
ATOM     22  H   UNL d   1      42.136   3.686  13.154  0.00  0.00     0.210 HD
ENDBRANCH   2  21
BRANCH   7  23
ATOM     23  O   UNL d   1      41.308   3.544  16.733  0.00  0.00    -0.360 OA
ATOM     24  H   UNL d   1      40.760   3.257  16.690  0.00  0.00     0.217 HD
ENDBRANCH   7  23
BRANCH  10  25
ATOM     25  O   UNL d   1      41.299   6.799  18.124  0.00  0.00    -0.361 OA
ATOM     26  H   UNL d   1      40.958   6.637  18.615  0.00  0.00     0.217 HD
ENDBRANCH  10  25
TORSDOF 6
ENDMDL
MODEL 2
REMARK VINA RESULT:    -5.930      2.749      5.034
REMARK INTER + INTRA:          -3.683
REMARK INTER:                  -7.154
REMARK INTRA:                   3.472
REMARK UNBOUND:                 3.461
REMARK  6 active torsions:
REMARK  status: ('A' for Active; 'I' for Inactive)
REMARK    1  A    between atoms: O_2  and  C_7 
REMARK    2  A    between atoms: O_3  and  C_13 
REMARK    3  A    between atoms: O_4  and  C_18 
REMARK    4  A    between atoms: O_5  and  C_19 
REMARK    5  A    between atoms: O_6  and  C_21 
REMARK    6  A    between atoms: C_8  and  C_12 
ROOT
ATOM      1  O   UNL d   1      41.227   3.063  15.853  0.00  0.00    -0.338 OA
ATOM      2  C   UNL d   1      40.541   4.208  14.749  0.00  0.00     0.156 A 
ATOM      3  C   UNL d   1      40.961   4.002  15.633  0.00  0.00     0.191 A 
ATOM      4  C   UNL d   1      40.386   3.476  14.086  0.00  0.00     0.079 A 
ATOM      5  C   UNL d   1      40.652   2.537  14.306  0.00  0.00     0.011 A 
ATOM      6  C   UNL d   1      41.073   2.331  15.190  0.00  0.00     0.081 A 
ATOM      7  C   UNL d   1      40.485   1.785  13.606  0.00  0.00     0.077 A 
ATOM      8  C   UNL d   1      41.355   1.359  15.434  0.00  0.00     0.074 A 
ATOM      9  C   UNL d   1      40.760   0.805  13.828  0.00  0.00     0.073 A 
ATOM     10  C   UNL d   1      41.197   0.591  14.748  0.00  0.00     0.071 A 
ENDROOT
BRANCH   3  11
ATOM     11  C   UNL d   1      41.115   4.734  16.296  0.00  0.00    -0.024 A 
ATOM     12  C   UNL d   1      40.378   5.016  16.910  0.00  0.00     0.049 A 
ATOM     13  C   UNL d   1      40.533   5.748  17.573  0.00  0.00     0.099 A 
ATOM     14  C   UNL d   1      41.424   6.199  17.622  0.00  0.00     0.098 A 
ATOM     15  C   UNL d   1      42.161   5.917  17.008  0.00  0.00     0.040 A 
ATOM     16  C   UNL d   1      42.007   5.184  16.345  0.00  0.00     0.013 A 
BRANCH  13  17
ATOM     17  O   UNL d   1      39.795   6.030  18.187  0.00  0.00    -0.358 OA
ATOM     18  H   UNL d   1      39.849   6.553  18.517  0.00  0.00     0.217 HD
ENDBRANCH  13  17
BRANCH  14  19
ATOM     19  O   UNL d   1      41.579   6.931  18.286  0.00  0.00    -0.358 OA
ATOM     20  H   UNL d   1      41.816   7.473  18.100  0.00  0.00     0.217 HD
ENDBRANCH  14  19
ENDBRANCH   3  11
BRANCH   2  21
ATOM     21  O   UNL d   1      40.274   5.146  14.529  0.00  0.00    -0.392 OA
ATOM     22  H   UNL d   1      39.896   5.459  14.908  0.00  0.00     0.210 HD
ENDBRANCH   2  21
BRANCH   7  23
ATOM     23  O   UNL d   1      40.064   2.003  12.725  0.00  0.00    -0.360 OA
ATOM     24  H   UNL d   1      39.619   1.637  12.496  0.00  0.00     0.217 HD
ENDBRANCH   7  23
BRANCH  10  25
ATOM     25  O   UNL d   1      41.465  -0.347  14.971  0.00  0.00    -0.361 OA
ATOM     26  H   UNL d   1      42.064  -0.498  15.011  0.00  0.00     0.217 HD
ENDBRANCH  10  25
TORSDOF 6
ENDMDL
MODEL 3
REMARK VINA RESULT:    -5.902     21.915     23.320
REMARK INTER + INTRA:          -3.649
REMARK INTER:                  -7.112
REMARK INTRA:                   3.463
REMARK UNBOUND:                 3.461
REMARK  6 active torsions:
REMARK  status: ('A' for Active; 'I' for Inactive)
REMARK    1  A    between atoms: O_2  and  C_7 
REMARK    2  A    between atoms: O_3  and  C_13 
REMARK    3  A    between atoms: O_4  and  C_18 
REMARK    4  A    between atoms: O_5  and  C_19 
REMARK    5  A    between atoms: O_6  and  C_21 
REMARK    6  A    between atoms: C_8  and  C_12 
ROOT
ATOM      1  O   UNL d   1      48.766 -16.544  12.078  0.00  0.00    -0.338 OA
ATOM      2  C   UNL d   1      47.444 -15.582  11.505  0.00  0.00     0.156 A 
ATOM      3  C   UNL d   1      48.116 -16.308  11.355  0.00  0.00     0.191 A 
ATOM      4  C   UNL d   1      47.422 -15.094  12.377  0.00  0.00     0.079 A 
ATOM      5  C   UNL d   1      48.071 -15.331  13.100  0.00  0.00     0.011 A 
ATOM      6  C   UNL d   1      48.743 -16.056  12.950  0.00  0.00     0.081 A 
ATOM      7  C   UNL d   1      48.036 -14.814  14.003  0.00  0.00     0.077 A 
ATOM      8  C   UNL d   1      49.427 -16.314  13.693  0.00  0.00     0.074 A 
ATOM      9  C   UNL d   1      48.709 -15.055  14.760  0.00  0.00     0.073 A 
ATOM     10  C   UNL d   1      49.409 -15.810  14.604  0.00  0.00     0.071 A 
ENDROOT
BRANCH   3  11
ATOM     11  C   UNL d   1      48.139 -16.796  10.483  0.00  0.00    -0.024 A 
ATOM     12  C   UNL d   1      48.723 -16.467   9.741  0.00  0.00     0.049 A 
ATOM     13  C   UNL d   1      48.745 -16.955   8.868  0.00  0.00     0.099 A 
ATOM     14  C   UNL d   1      48.184 -17.773   8.738  0.00  0.00     0.098 A 
ATOM     15  C   UNL d   1      47.601 -18.102   9.481  0.00  0.00     0.040 A 
ATOM     16  C   UNL d   1      47.578 -17.613  10.353  0.00  0.00     0.013 A 
BRANCH  13  17
ATOM     17  O   UNL d   1      49.329 -16.626   8.126  0.00  0.00    -0.358 OA
ATOM     18  H   UNL d   1      49.272 -16.867   7.557  0.00  0.00     0.217 HD
ENDBRANCH  13  17
BRANCH  14  19
ATOM     19  O   UNL d   1      48.207 -18.261   7.866  0.00  0.00    -0.358 OA
ATOM     20  H   UNL d   1      48.117 -17.953   7.336  0.00  0.00     0.217 HD
ENDBRANCH  14  19
ENDBRANCH   3  11
BRANCH   2  21
ATOM     21  O   UNL d   1      46.795 -15.346  10.782  0.00  0.00    -0.392 OA
ATOM     22  H   UNL d   1      46.970 -14.975  10.318  0.00  0.00     0.210 HD
ENDBRANCH   2  21
BRANCH   7  23
ATOM     23  O   UNL d   1      47.360 -14.090  14.142  0.00  0.00    -0.360 OA
ATOM     24  H   UNL d   1      46.768 -14.186  13.985  0.00  0.00     0.217 HD
ENDBRANCH   7  23
BRANCH  10  25
ATOM     25  O   UNL d   1      50.060 -16.049  15.325  0.00  0.00    -0.361 OA
ATOM     26  H   UNL d   1      50.029 -15.769  15.876  0.00  0.00     0.217 HD
ENDBRANCH  10  25
TORSDOF 6
ENDMDL
MODEL 4
REMARK VINA RESULT:    -5.883     14.762     16.846
REMARK INTER + INTRA:          -3.627
REMARK INTER:                  -7.215
REMARK INTRA:                   3.589
REMARK UNBOUND:                 3.461
REMARK  6 active torsions:
REMARK  status: ('A' for Active; 'I' for Inactive)
REMARK    1  A    between atoms: O_2  and  C_7 
REMARK    2  A    between atoms: O_3  and  C_13 
REMARK    3  A    between atoms: O_4  and  C_18 
REMARK    4  A    between atoms: O_5  and  C_19 
REMARK    5  A    between atoms: O_6  and  C_21 
REMARK    6  A    between atoms: C_8  and  C_12 
ROOT
ATOM      1  O   UNL d   1      47.190   6.180  30.081  0.00  0.00    -0.338 OA
ATOM      2  C   UNL d   1      47.105   7.910  30.040  0.00  0.00     0.156 A 
ATOM      3  C   UNL d   1      47.471   7.052  29.680  0.00  0.00     0.191 A 
ATOM      4  C   UNL d   1      46.458   7.896  30.802  0.00  0.00     0.079 A 
ATOM      5  C   UNL d   1      46.176   7.025  31.203  0.00  0.00     0.011 A 
ATOM      6  C   UNL d   1      46.542   6.167  30.843  0.00  0.00     0.081 A 
ATOM      7  C   UNL d   1      45.501   7.026  31.996  0.00  0.00     0.077 A 
ATOM      8  C   UNL d   1      46.258   5.251  31.250  0.00  0.00     0.074 A 
ATOM      9  C   UNL d   1      45.203   6.122  32.419  0.00  0.00     0.073 A 
ATOM     10  C   UNL d   1      45.584   5.229  32.044  0.00  0.00     0.071 A 
ENDROOT
BRANCH   3  11
ATOM     11  C   UNL d   1      48.119   7.066  28.918  0.00  0.00    -0.024 A 
ATOM     12  C   UNL d   1      47.817   6.808  28.000  0.00  0.00     0.049 A 
ATOM     13  C   UNL d   1      48.464   6.821  27.238  0.00  0.00     0.099 A 
ATOM     14  C   UNL d   1      49.414   7.093  27.394  0.00  0.00     0.098 A 
ATOM     15  C   UNL d   1      49.716   7.351  28.312  0.00  0.00     0.040 A 
ATOM     16  C   UNL d   1      49.069   7.337  29.074  0.00  0.00     0.013 A 
BRANCH  13  17
ATOM     17  O   UNL d   1      48.162   6.563  26.321  0.00  0.00    -0.358 OA
ATOM     18  H   UNL d   1      47.562   6.452  26.212  0.00  0.00     0.217 HD
ENDBRANCH  13  17
BRANCH  14  19
ATOM     19  O   UNL d   1      50.062   7.106  26.632  0.00  0.00    -0.358 OA
ATOM     20  H   UNL d   1      49.939   7.443  26.127  0.00  0.00     0.217 HD
ENDBRANCH  14  19
ENDBRANCH   3  11
BRANCH   2  21
ATOM     21  O   UNL d   1      47.387   8.781  29.639  0.00  0.00    -0.392 OA
ATOM     22  H   UNL d   1      47.508   9.267  30.005  0.00  0.00     0.210 HD
ENDBRANCH   2  21
BRANCH   7  23
ATOM     23  O   UNL d   1      45.142   7.890  32.349  0.00  0.00    -0.360 OA
ATOM     24  H   UNL d   1      44.630   7.893  32.699  0.00  0.00     0.217 HD
ENDBRANCH   7  23
BRANCH  10  25
ATOM     25  O   UNL d   1      45.304   4.356  32.443  0.00  0.00    -0.361 OA
ATOM     26  H   UNL d   1      45.600   4.132  32.938  0.00  0.00     0.217 HD
ENDBRANCH  10  25
TORSDOF 6
ENDMDL
MODEL 5
REMARK VINA RESULT:    -5.795      2.467      3.760
REMARK INTER + INTRA:          -3.520
REMARK INTER:                  -6.990
REMARK INTRA:                   3.469
REMARK UNBOUND:                 3.461
REMARK  6 active torsions:
REMARK  status: ('A' for Active; 'I' for Inactive)
REMARK    1  A    between atoms: O_2  and  C_7 
REMARK    2  A    between atoms: O_3  and  C_13 
REMARK    3  A    between atoms: O_4  and  C_18 
REMARK    4  A    between atoms: O_5  and  C_19 
REMARK    5  A    between atoms: O_6  and  C_21 
REMARK    6  A    between atoms: C_8  and  C_12 
ROOT
ATOM      1  O   UNL d   1      41.397   3.356  14.005  0.00  0.00    -0.338 OA
ATOM      2  C   UNL d   1      40.161   3.819  12.883  0.00  0.00     0.156 A 
ATOM      3  C   UNL d   1      40.982   4.043  13.409  0.00  0.00     0.191 A 
ATOM      4  C   UNL d   1      39.756   2.907  12.954  0.00  0.00     0.079 A 
ATOM      5  C   UNL d   1      40.171   2.220  13.550  0.00  0.00     0.011 A 
ATOM      6  C   UNL d   1      40.992   2.444  14.076  0.00  0.00     0.081 A 
ATOM      7  C   UNL d   1      39.738   1.275  13.613  0.00  0.00     0.077 A 
ATOM      8  C   UNL d   1      41.436   1.739  14.701  0.00  0.00     0.074 A 
ATOM      9  C   UNL d   1      40.164   0.555  14.232  0.00  0.00     0.073 A 
ATOM     10  C   UNL d   1      41.019   0.788  14.780  0.00  0.00     0.071 A 
ENDROOT
BRANCH   3  11
ATOM     11  C   UNL d   1      41.387   4.954  13.338  0.00  0.00    -0.024 A 
ATOM     12  C   UNL d   1      42.085   5.139  12.646  0.00  0.00     0.049 A 
ATOM     13  C   UNL d   1      42.491   6.050  12.575  0.00  0.00     0.099 A 
ATOM     14  C   UNL d   1      42.199   6.777  13.197  0.00  0.00     0.098 A 
ATOM     15  C   UNL d   1      41.501   6.592  13.889  0.00  0.00     0.040 A 
ATOM     16  C   UNL d   1      41.095   5.681  13.959  0.00  0.00     0.013 A 
BRANCH  13  17
ATOM     17  O   UNL d   1      43.189   6.234  11.883  0.00  0.00    -0.358 OA
ATOM     18  H   UNL d   1      43.720   6.511  12.044  0.00  0.00     0.217 HD
ENDBRANCH  13  17
BRANCH  14  19
ATOM     19  O   UNL d   1      42.604   7.688  13.126  0.00  0.00    -0.358 OA
ATOM     20  H   UNL d   1      42.731   7.929  12.569  0.00  0.00     0.217 HD
ENDBRANCH  14  19
ENDBRANCH   3  11
BRANCH   2  21
ATOM     21  O   UNL d   1      39.746   4.506  12.287  0.00  0.00    -0.392 OA
ATOM     22  H   UNL d   1      39.520   5.030  12.528  0.00  0.00     0.210 HD
ENDBRANCH   2  21
BRANCH   7  23
ATOM     23  O   UNL d   1      38.917   1.062  13.083  0.00  0.00    -0.360 OA
ATOM     24  H   UNL d   1      38.452   0.747  13.345  0.00  0.00     0.217 HD
ENDBRANCH   7  23
BRANCH  10  25
ATOM     25  O   UNL d   1      41.436   0.103  15.377  0.00  0.00    -0.361 OA
ATOM     26  H   UNL d   1      41.632   0.263  15.943  0.00  0.00     0.217 HD
ENDBRANCH  10  25
TORSDOF 6
ENDMDL
