MODEL 1
REMARK VINA RESULT:    -6.411      0.000      0.000
REMARK INTER + INTRA:          -6.130
REMARK INTER:                  -7.134
REMARK INTRA:                   1.004
REMARK UNBOUND:                 1.031
REMARK  3 active torsions:
REMARK  status: ('A' for Active; 'I' for Inactive)
REMARK    1  A    between atoms: O_2  and  C_10 
REMARK    2  A    between atoms: O_4  and  C_13 
REMARK    3  A    between atoms: C_7  and  C_9 
ROOT
ATOM      1  O   UNL d   1      41.951   5.908  14.297  0.00  0.00    -0.309 OA
ATOM      2  O   UNL d   1      41.052   3.055  14.069  0.00  0.00    -0.287 OA
ATOM      3  C   UNL d   1      41.427   4.437  15.045  0.00  0.00     0.081 A 
ATOM      4  C   UNL d   1      41.726   5.388  15.120  0.00  0.00     0.095 A 
ATOM      5  C   UNL d   1      41.877   5.478  13.397  0.00  0.00     0.090 A 
ATOM      6  C   UNL d   1      41.352   4.006  14.145  0.00  0.00     0.190 A 
ATOM      7  C   UNL d   1      41.189   3.883  15.893  0.00  0.00     0.085 A 
ATOM      8  C   UNL d   1      41.577   4.527  13.321  0.00  0.00     0.094 A 
ATOM      9  C   UNL d   1      41.809   5.850  16.050  0.00  0.00     0.075 A 
ATOM     10  C   UNL d   1      41.576   5.314  16.913  0.00  0.00     0.071 A 
ATOM     11  C   UNL d   1      41.264   4.324  16.834  0.00  0.00     0.074 A 
ENDROOT
BRANCH   5  12
ATOM     12  C   UNL d   1      42.102   5.998  12.573  0.00  0.00    -0.002 A 
ATOM     13  C   UNL d   1      41.375   6.439  12.046  0.00  0.00     0.014 A 
ATOM     14  C   UNL d   1      41.600   6.959  11.223  0.00  0.00     0.001 A 
ATOM     15  C   UNL d   1      42.552   7.039  10.926  0.00  0.00     0.000 A 
ATOM     16  C   UNL d   1      43.278   6.598  11.453  0.00  0.00     0.001 A 
ATOM     17  C   UNL d   1      43.053   6.078  12.277  0.00  0.00     0.014 A 
ENDBRANCH   5  12
BRANCH   7  18
ATOM     18  O   UNL d   1      40.890   2.932  15.806  0.00  0.00    -0.360 OA
ATOM     19  H   UNL d   1      41.307   2.474  15.819  0.00  0.00     0.217 HD
ENDBRANCH   7  18
BRANCH  10  20
ATOM     20  O   UNL d   1      41.653   5.749  17.810  0.00  0.00    -0.361 OA
ATOM     21  H   UNL d   1      42.202   5.959  18.007  0.00  0.00     0.217 HD
ENDBRANCH  10  20
TORSDOF 3
ENDMDL
MODEL 2
REMARK VINA RESULT:    -6.242      1.032      2.232
REMARK INTER + INTRA:          -5.941
REMARK INTER:                  -6.953
REMARK INTRA:                   1.012
REMARK UNBOUND:                 1.031
REMARK  3 active torsions:
REMARK  status: ('A' for Active; 'I' for Inactive)
REMARK    1  A    between atoms: O_2  and  C_10 
REMARK    2  A    between atoms: O_4  and  C_13 
REMARK    3  A    between atoms: C_7  and  C_9 
ROOT
ATOM      1  O   UNL d   1      41.519   4.384  13.122  0.00  0.00    -0.309 OA
ATOM      2  O   UNL d   1      41.829   5.379  15.935  0.00  0.00    -0.287 OA
ATOM      3  C   UNL d   1      41.395   4.119  14.830  0.00  0.00     0.081 A 
ATOM      4  C   UNL d   1      41.291   3.787  13.892  0.00  0.00     0.095 A 
ATOM      5  C   UNL d   1      41.850   5.312  13.291  0.00  0.00     0.090 A 
ATOM      6  C   UNL d   1      41.726   5.047  14.998  0.00  0.00     0.190 A 
ATOM      7  C   UNL d   1      41.161   3.509  15.641  0.00  0.00     0.085 A 
ATOM      8  C   UNL d   1      41.954   5.644  14.228  0.00  0.00     0.094 A 
ATOM      9  C   UNL d   1      40.947   2.823  13.701  0.00  0.00     0.075 A 
ATOM     10  C   UNL d   1      40.708   2.195  14.497  0.00  0.00     0.071 A 
ATOM     11  C   UNL d   1      40.816   2.541  15.473  0.00  0.00     0.074 A 
ENDROOT
BRANCH   5  12
ATOM     12  C   UNL d   1      42.078   5.909  12.521  0.00  0.00    -0.002 A 
ATOM     13  C   UNL d   1      41.352   6.389  12.029  0.00  0.00     0.014 A 
ATOM     14  C   UNL d   1      41.580   6.985  11.259  0.00  0.00     0.001 A 
ATOM     15  C   UNL d   1      42.534   7.102  10.982  0.00  0.00     0.000 A 
ATOM     16  C   UNL d   1      43.260   6.622  11.475  0.00  0.00     0.001 A 
ATOM     17  C   UNL d   1      43.032   6.026  12.244  0.00  0.00     0.014 A 
ENDBRANCH   5  12
BRANCH   7  18
ATOM     18  O   UNL d   1      41.269   3.851  16.574  0.00  0.00    -0.360 OA
ATOM     19  H   UNL d   1      41.819   4.063  16.765  0.00  0.00     0.217 HD
ENDBRANCH   7  18
BRANCH  10  20
ATOM     20  O   UNL d   1      40.377   1.267  14.325  0.00  0.00    -0.361 OA
ATOM     21  H   UNL d   1      40.199   1.104  13.754  0.00  0.00     0.217 HD
ENDBRANCH  10  20
TORSDOF 3
ENDMDL
MODEL 3
REMARK VINA RESULT:    -6.194      2.008      4.540
REMARK INTER + INTRA:          -5.887
REMARK INTER:                  -6.899
REMARK INTRA:                   1.012
REMARK UNBOUND:                 1.031
REMARK  3 active torsions:
REMARK  status: ('A' for Active; 'I' for Inactive)
REMARK    1  A    between atoms: O_2  and  C_10 
REMARK    2  A    between atoms: O_4  and  C_13 
REMARK    3  A    between atoms: C_7  and  C_9 
ROOT
ATOM      1  O   UNL d   1      41.887   4.521  13.299  0.00  0.00    -0.309 OA
ATOM      2  O   UNL d   1      39.412   5.387  11.842  0.00  0.00    -0.287 OA
ATOM      3  C   UNL d   1      41.063   5.661  12.288  0.00  0.00     0.081 A 
ATOM      4  C   UNL d   1      41.888   5.372  12.774  0.00  0.00     0.095 A 
ATOM      5  C   UNL d   1      41.061   3.959  13.338  0.00  0.00     0.090 A 
ATOM      6  C   UNL d   1      40.237   5.098  12.328  0.00  0.00     0.190 A 
ATOM      7  C   UNL d   1      41.049   6.544  11.737  0.00  0.00     0.085 A 
ATOM      8  C   UNL d   1      40.236   4.247  12.853  0.00  0.00     0.094 A 
ATOM      9  C   UNL d   1      42.756   5.947  12.742  0.00  0.00     0.075 A 
ATOM     10  C   UNL d   1      42.764   6.835  12.197  0.00  0.00     0.071 A 
ATOM     11  C   UNL d   1      41.905   7.135  11.692  0.00  0.00     0.074 A 
ENDROOT
BRANCH   5  12
ATOM     12  C   UNL d   1      41.061   3.108  13.864  0.00  0.00    -0.002 A 
ATOM     13  C   UNL d   1      41.178   2.231  13.396  0.00  0.00     0.014 A 
ATOM     14  C   UNL d   1      41.178   1.380  13.921  0.00  0.00     0.001 A 
ATOM     15  C   UNL d   1      41.059   1.406  14.914  0.00  0.00     0.000 A 
ATOM     16  C   UNL d   1      40.942   2.282  15.381  0.00  0.00     0.001 A 
ATOM     17  C   UNL d   1      40.942   3.133  14.856  0.00  0.00     0.014 A 
ENDBRANCH   5  12
BRANCH   7  18
ATOM     18  O   UNL d   1      40.218   6.823  11.256  0.00  0.00    -0.360 OA
ATOM     19  H   UNL d   1      39.853   6.395  10.995  0.00  0.00     0.217 HD
ENDBRANCH   7  18
BRANCH  10  20
ATOM     20  O   UNL d   1      43.592   7.395  12.161  0.00  0.00    -0.361 OA
ATOM     21  H   UNL d   1      43.815   7.653  12.679  0.00  0.00     0.217 HD
ENDBRANCH  10  20
TORSDOF 3
ENDMDL
MODEL 4
REMARK VINA RESULT:    -5.955      1.897      4.517
REMARK INTER + INTRA:          -5.621
REMARK INTER:                  -6.687
REMARK INTRA:                   1.066
REMARK UNBOUND:                 1.031
REMARK  3 active torsions:
REMARK  status: ('A' for Active; 'I' for Inactive)
REMARK    1  A    between atoms: O_2  and  C_10 
REMARK    2  A    between atoms: O_4  and  C_13 
REMARK    3  A    between atoms: C_7  and  C_9 
ROOT
ATOM      1  O   UNL d   1      41.605   6.713  14.579  0.00  0.00    -0.309 OA
ATOM      2  O   UNL d   1      42.748   5.807  11.957  0.00  0.00    -0.287 OA
ATOM      3  C   UNL d   1      42.171   7.078  12.983  0.00  0.00     0.081 A 
ATOM      4  C   UNL d   1      41.790   7.380  13.856  0.00  0.00     0.095 A 
ATOM      5  C   UNL d   1      41.802   5.745  14.427  0.00  0.00     0.090 A 
ATOM      6  C   UNL d   1      42.367   6.109  12.831  0.00  0.00     0.190 A 
ATOM      7  C   UNL d   1      42.368   7.761  12.222  0.00  0.00     0.085 A 
ATOM      8  C   UNL d   1      42.183   5.443  13.553  0.00  0.00     0.094 A 
ATOM      9  C   UNL d   1      41.580   8.386  14.029  0.00  0.00     0.075 A 
ATOM     10  C   UNL d   1      41.769   9.086  13.282  0.00  0.00     0.071 A 
ATOM     11  C   UNL d   1      42.166   8.771  12.372  0.00  0.00     0.074 A 
ENDROOT
BRANCH   5  12
ATOM     12  C   UNL d   1      41.618   5.078  15.149  0.00  0.00    -0.002 A 
ATOM     13  C   UNL d   1      42.134   5.112  16.005  0.00  0.00     0.014 A 
ATOM     14  C   UNL d   1      41.950   4.446  16.727  0.00  0.00     0.001 A 
ATOM     15  C   UNL d   1      41.249   3.745  16.594  0.00  0.00     0.000 A 
ATOM     16  C   UNL d   1      40.732   3.711  15.738  0.00  0.00     0.001 A 
ATOM     17  C   UNL d   1      40.917   4.377  15.016  0.00  0.00     0.014 A 
ENDBRANCH   5  12
BRANCH   7  18
ATOM     18  O   UNL d   1      42.749   7.447  11.352  0.00  0.00    -0.360 OA
ATOM     19  H   UNL d   1      43.363   7.407  11.279  0.00  0.00     0.217 HD
ENDBRANCH   7  18
BRANCH  10  20
ATOM     20  O   UNL d   1      41.571  10.054  13.438  0.00  0.00    -0.361 OA
ATOM     21  H   UNL d   1      40.999  10.273  13.338  0.00  0.00     0.217 HD
ENDBRANCH  10  20
TORSDOF 3
ENDMDL
MODEL 5
REMARK VINA RESULT:    -5.946      2.139      3.290
REMARK INTER + INTRA:          -5.611
REMARK INTER:                  -6.622
REMARK INTRA:                   1.012
REMARK UNBOUND:                 1.031
REMARK  3 active torsions:
REMARK  status: ('A' for Active; 'I' for Inactive)
REMARK    1  A    between atoms: O_2  and  C_10 
REMARK    2  A    between atoms: O_4  and  C_13 
REMARK    3  A    between atoms: C_7  and  C_9 
ROOT
ATOM      1  O   UNL d   1      41.409   3.330  14.079  0.00  0.00    -0.309 OA
ATOM      2  O   UNL d   1      38.958   2.712  12.464  0.00  0.00    -0.287 OA
ATOM      3  C   UNL d   1      40.184   2.212  13.580  0.00  0.00     0.081 A 
ATOM      4  C   UNL d   1      41.001   2.418  14.119  0.00  0.00     0.095 A 
ATOM      5  C   UNL d   1      41.000   4.036  13.501  0.00  0.00     0.090 A 
ATOM      6  C   UNL d   1      39.775   2.918  13.002  0.00  0.00     0.190 A 
ATOM      7  C   UNL d   1      39.749   1.267  13.612  0.00  0.00     0.085 A 
ATOM      8  C   UNL d   1      40.183   3.830  12.963  0.00  0.00     0.094 A 
ATOM      9  C   UNL d   1      41.439   1.693  14.726  0.00  0.00     0.075 A 
ATOM     10  C   UNL d   1      41.020   0.741  14.772  0.00  0.00     0.071 A 
ATOM     11  C   UNL d   1      40.169   0.526  14.211  0.00  0.00     0.074 A 
ENDROOT
BRANCH   5  12
ATOM     12  C   UNL d   1      41.408   4.949  13.461  0.00  0.00    -0.002 A 
ATOM     13  C   UNL d   1      41.227   5.609  14.190  0.00  0.00     0.014 A 
ATOM     14  C   UNL d   1      41.635   6.521  14.150  0.00  0.00     0.001 A 
ATOM     15  C   UNL d   1      42.223   6.773  13.382  0.00  0.00     0.000 A 
ATOM     16  C   UNL d   1      42.404   6.112  12.654  0.00  0.00     0.001 A 
ATOM     17  C   UNL d   1      41.996   5.200  12.693  0.00  0.00     0.014 A 
ENDBRANCH   5  12
BRANCH   7  18
ATOM     18  O   UNL d   1      38.931   1.072  13.069  0.00  0.00    -0.360 OA
ATOM     19  H   UNL d   1      38.459   1.473  13.066  0.00  0.00     0.217 HD
ENDBRANCH   7  18
BRANCH  10  20
ATOM     20  O   UNL d   1      41.432   0.038  15.351  0.00  0.00    -0.361 OA
ATOM     21  H   UNL d   1      41.867   0.193  15.765  0.00  0.00     0.217 HD
ENDBRANCH  10  20
TORSDOF 3
ENDMDL
