MODEL 1
REMARK VINA RESULT:    -6.300      0.000      0.000
REMARK INTER + INTRA:          -5.622
REMARK INTER:                  -7.446
REMARK INTRA:                   1.824
REMARK UNBOUND:                 1.967
REMARK  5 active torsions:
REMARK  status: ('A' for Active; 'I' for Inactive)
REMARK    1  A    between atoms: O_2  and  C_13 
REMARK    2  A    between atoms: O_3  and  C_19 
REMARK    3  A    between atoms: O_5  and  C_17 
REMARK    4  A    between atoms: O_6  and  C_21 
REMARK    5  A    between atoms: C_8  and  C_10 
ROOT
ATOM      1  O   UNL d   1      41.597   6.349  14.602  0.00  0.00    -0.309 OA
ATOM      2  O   UNL d   1      41.288   3.393  15.010  0.00  0.00    -0.287 OA
ATOM      3  C   UNL d   1      41.384   4.995  15.661  0.00  0.00     0.081 A 
ATOM      4  C   UNL d   1      41.604   5.732  13.815  0.00  0.00     0.090 A 
ATOM      5  C   UNL d   1      41.487   5.980  15.525  0.00  0.00     0.095 A 
ATOM      6  C   UNL d   1      41.391   4.378  14.874  0.00  0.00     0.190 A 
ATOM      7  C   UNL d   1      41.501   4.747  13.951  0.00  0.00     0.094 A 
ATOM      8  C   UNL d   1      41.268   4.597  16.616  0.00  0.00     0.085 A 
ATOM      9  C   UNL d   1      41.481   6.635  16.336  0.00  0.00     0.075 A 
ATOM     10  C   UNL d   1      41.367   6.259  17.300  0.00  0.00     0.071 A 
ATOM     11  C   UNL d   1      41.259   5.233  17.441  0.00  0.00     0.074 A 
ENDROOT
BRANCH   4  12
ATOM     12  C   UNL d   1      41.714   6.101  12.892  0.00  0.00     0.001 A 
ATOM     13  C   UNL d   1      42.616   6.105  12.460  0.00  0.00     0.054 A 
ATOM     14  C   UNL d   1      42.726   6.474  11.537  0.00  0.00     0.102 A 
ATOM     15  C   UNL d   1      41.935   6.839  11.046  0.00  0.00     0.099 A 
ATOM     16  C   UNL d   1      41.033   6.834  11.479  0.00  0.00     0.040 A 
ATOM     17  C   UNL d   1      40.923   6.466  12.402  0.00  0.00     0.017 A 
BRANCH  14  18
ATOM     18  O   UNL d   1      43.628   6.478  11.105  0.00  0.00    -0.353 OA
ATOM     19  C   UNL d   1      44.417   6.103  11.591  0.00  0.00     0.210 C 
ENDBRANCH  14  18
BRANCH  15  20
ATOM     20  O   UNL d   1      42.045   7.207  10.123  0.00  0.00    -0.358 OA
ATOM     21  H   UNL d   1      42.242   7.790  10.044  0.00  0.00     0.217 HD
ENDBRANCH  15  20
ENDBRANCH   4  12
BRANCH   8  22
ATOM     22  O   UNL d   1      41.166   3.610  16.740  0.00  0.00    -0.360 OA
ATOM     23  H   UNL d   1      41.040   3.248  16.253  0.00  0.00     0.217 HD
ENDBRANCH   8  22
BRANCH  10  24
ATOM     24  O   UNL d   1      41.360   6.879  18.085  0.00  0.00    -0.361 OA
ATOM     25  H   UNL d   1      41.713   6.756  18.579  0.00  0.00     0.217 HD
ENDBRANCH  10  24
TORSDOF 5
ENDMDL
MODEL 2
REMARK VINA RESULT:    -6.270     21.701     22.996
REMARK INTER + INTRA:          -5.586
REMARK INTER:                  -7.585
REMARK INTRA:                   1.999
REMARK UNBOUND:                 1.967
REMARK  5 active torsions:
REMARK  status: ('A' for Active; 'I' for Inactive)
REMARK    1  A    between atoms: O_2  and  C_13 
REMARK    2  A    between atoms: O_3  and  C_19 
REMARK    3  A    between atoms: O_5  and  C_17 
REMARK    4  A    between atoms: O_6  and  C_21 
REMARK    5  A    between atoms: C_8  and  C_10 
ROOT
ATOM      1  O   UNL d   1      48.308 -15.569  12.849  0.00  0.00    -0.309 OA
ATOM      2  O   UNL d   1      49.280 -17.999  14.315  0.00  0.00    -0.287 OA
ATOM      3  C   UNL d   1      48.669 -16.378  14.337  0.00  0.00     0.081 A 
ATOM      4  C   UNL d   1      48.595 -16.379  12.338  0.00  0.00     0.090 A 
ATOM      5  C   UNL d   1      48.345 -15.568  13.848  0.00  0.00     0.095 A 
ATOM      6  C   UNL d   1      48.956 -17.189  13.826  0.00  0.00     0.190 A 
ATOM      7  C   UNL d   1      48.919 -17.189  12.827  0.00  0.00     0.094 A 
ATOM      8  C   UNL d   1      48.713 -16.392  15.377  0.00  0.00     0.085 A 
ATOM      9  C   UNL d   1      48.042 -14.716  14.366  0.00  0.00     0.075 A 
ATOM     10  C   UNL d   1      48.078 -14.708  15.407  0.00  0.00     0.071 A 
ATOM     11  C   UNL d   1      48.415 -15.552  15.916  0.00  0.00     0.074 A 
ENDROOT
BRANCH   4  12
ATOM     12  C   UNL d   1      48.558 -16.380  11.339  0.00  0.00     0.001 A 
ATOM     13  C   UNL d   1      47.730 -16.072  10.869  0.00  0.00     0.054 A 
ATOM     14  C   UNL d   1      47.693 -16.073   9.870  0.00  0.00     0.102 A 
ATOM     15  C   UNL d   1      48.484 -16.381   9.340  0.00  0.00     0.099 A 
ATOM     16  C   UNL d   1      49.311 -16.689   9.810  0.00  0.00     0.040 A 
ATOM     17  C   UNL d   1      49.348 -16.688  10.809  0.00  0.00     0.017 A 
BRANCH  14  18
ATOM     18  O   UNL d   1      46.866 -15.765   9.400  0.00  0.00    -0.353 OA
ATOM     19  C   UNL d   1      46.075 -15.459   9.929  0.00  0.00     0.210 C 
ENDBRANCH  14  18
BRANCH  15  20
ATOM     20  O   UNL d   1      48.447 -16.382   8.341  0.00  0.00    -0.358 OA
ATOM     21  H   UNL d   1      48.841 -16.734   8.016  0.00  0.00     0.217 HD
ENDBRANCH  15  20
ENDBRANCH   4  12
BRANCH   8  22
ATOM     22  O   UNL d   1      49.038 -17.208  15.855  0.00  0.00    -0.360 OA
ATOM     23  H   UNL d   1      49.641 -17.351  15.849  0.00  0.00     0.217 HD
ENDBRANCH   8  22
BRANCH  10  24
ATOM     24  O   UNL d   1      47.790 -13.895  15.913  0.00  0.00    -0.361 OA
ATOM     25  H   UNL d   1      48.200 -13.585  16.259  0.00  0.00     0.217 HD
ENDBRANCH  10  24
TORSDOF 5
ENDMDL
MODEL 3
REMARK VINA RESULT:    -6.129      1.200      2.327
REMARK INTER + INTRA:          -5.417
REMARK INTER:                  -7.244
REMARK INTRA:                   1.827
REMARK UNBOUND:                 1.967
REMARK  5 active torsions:
REMARK  status: ('A' for Active; 'I' for Inactive)
REMARK    1  A    between atoms: O_2  and  C_13 
REMARK    2  A    between atoms: O_3  and  C_19 
REMARK    3  A    between atoms: O_5  and  C_17 
REMARK    4  A    between atoms: O_6  and  C_21 
REMARK    5  A    between atoms: C_8  and  C_10 
ROOT
ATOM      1  O   UNL d   1      41.344   4.338  13.407  0.00  0.00    -0.309 OA
ATOM      2  O   UNL d   1      41.902   5.455  16.135  0.00  0.00    -0.287 OA
ATOM      3  C   UNL d   1      41.402   4.139  15.127  0.00  0.00     0.081 A 
ATOM      4  C   UNL d   1      41.657   5.283  13.506  0.00  0.00     0.090 A 
ATOM      5  C   UNL d   1      41.216   3.766  14.217  0.00  0.00     0.095 A 
ATOM      6  C   UNL d   1      41.716   5.083  15.226  0.00  0.00     0.190 A 
ATOM      7  C   UNL d   1      41.843   5.655  14.415  0.00  0.00     0.094 A 
ATOM      8  C   UNL d   1      41.274   3.555  15.979  0.00  0.00     0.085 A 
ATOM      9  C   UNL d   1      40.889   2.784  14.098  0.00  0.00     0.075 A 
ATOM     10  C   UNL d   1      40.754   2.183  14.937  0.00  0.00     0.071 A 
ATOM     11  C   UNL d   1      40.948   2.570  15.884  0.00  0.00     0.074 A 
ENDROOT
BRANCH   4  12
ATOM     12  C   UNL d   1      41.785   5.855  12.696  0.00  0.00     0.001 A 
ATOM     13  C   UNL d   1      42.688   5.930  12.274  0.00  0.00     0.054 A 
ATOM     14  C   UNL d   1      42.816   6.502  11.463  0.00  0.00     0.102 A 
ATOM     15  C   UNL d   1      42.039   6.999  11.075  0.00  0.00     0.099 A 
ATOM     16  C   UNL d   1      41.136   6.924  11.497  0.00  0.00     0.040 A 
ATOM     17  C   UNL d   1      41.009   6.352  12.308  0.00  0.00     0.017 A 
BRANCH  14  18
ATOM     18  O   UNL d   1      43.719   6.577  11.041  0.00  0.00    -0.353 OA
ATOM     19  C   UNL d   1      44.493   6.071  11.423  0.00  0.00     0.210 C 
ENDBRANCH  14  18
BRANCH  15  20
ATOM     20  O   UNL d   1      42.167   7.571  10.265  0.00  0.00    -0.358 OA
ATOM     21  H   UNL d   1      42.662   7.941  10.222  0.00  0.00     0.217 HD
ENDBRANCH  15  20
ENDBRANCH   4  12
BRANCH   8  22
ATOM     22  O   UNL d   1      41.463   3.938  16.884  0.00  0.00    -0.360 OA
ATOM     23  H   UNL d   1      41.053   4.317  17.151  0.00  0.00     0.217 HD
ENDBRANCH   8  22
BRANCH  10  24
ATOM     24  O   UNL d   1      40.440   1.238  14.834  0.00  0.00    -0.361 OA
ATOM     25  H   UNL d   1      39.846   1.123  14.700  0.00  0.00     0.217 HD
ENDBRANCH  10  24
TORSDOF 5
ENDMDL
MODEL 4
REMARK VINA RESULT:    -5.958      2.339      3.881
REMARK INTER + INTRA:          -5.211
REMARK INTER:                  -7.042
REMARK INTRA:                   1.831
REMARK UNBOUND:                 1.967
REMARK  5 active torsions:
REMARK  status: ('A' for Active; 'I' for Inactive)
REMARK    1  A    between atoms: O_2  and  C_13 
REMARK    2  A    between atoms: O_3  and  C_19 
REMARK    3  A    between atoms: O_5  and  C_17 
REMARK    4  A    between atoms: O_6  and  C_21 
REMARK    5  A    between atoms: C_8  and  C_10 
ROOT
ATOM      1  O   UNL d   1      41.467   3.598  13.727  0.00  0.00    -0.309 OA
ATOM      2  O   UNL d   1      38.824   3.169  12.374  0.00  0.00    -0.287 OA
ATOM      3  C   UNL d   1      40.131   2.566  13.337  0.00  0.00     0.081 A 
ATOM      4  C   UNL d   1      41.040   4.344  13.214  0.00  0.00     0.090 A 
ATOM      5  C   UNL d   1      41.012   2.709  13.788  0.00  0.00     0.095 A 
ATOM      6  C   UNL d   1      39.705   3.312  12.825  0.00  0.00     0.190 A 
ATOM      7  C   UNL d   1      40.159   4.200  12.763  0.00  0.00     0.094 A 
ATOM      8  C   UNL d   1      39.646   1.646  13.392  0.00  0.00     0.085 A 
ATOM      9  C   UNL d   1      41.469   1.943  14.325  0.00  0.00     0.075 A 
ATOM     10  C   UNL d   1      41.002   1.014  14.393  0.00  0.00     0.071 A 
ATOM     11  C   UNL d   1      40.085   0.865  13.924  0.00  0.00     0.074 A 
ENDROOT
BRANCH   4  12
ATOM     12  C   UNL d   1      41.495   5.232  13.153  0.00  0.00     0.001 A 
ATOM     13  C   UNL d   1      41.259   5.960  13.797  0.00  0.00     0.054 A 
ATOM     14  C   UNL d   1      41.714   6.848  13.736  0.00  0.00     0.102 A 
ATOM     15  C   UNL d   1      42.404   7.009  13.031  0.00  0.00     0.099 A 
ATOM     16  C   UNL d   1      42.639   6.282  12.386  0.00  0.00     0.040 A 
ATOM     17  C   UNL d   1      42.185   5.393  12.448  0.00  0.00     0.017 A 
BRANCH  14  18
ATOM     18  O   UNL d   1      41.478   7.576  14.381  0.00  0.00    -0.353 OA
ATOM     19  C   UNL d   1      40.925   7.369  15.188  0.00  0.00     0.210 C 
ENDBRANCH  14  18
BRANCH  15  20
ATOM     20  O   UNL d   1      42.858   7.898  12.969  0.00  0.00    -0.358 OA
ATOM     21  H   UNL d   1      42.596   8.399  13.225  0.00  0.00     0.217 HD
ENDBRANCH  15  20
ENDBRANCH   4  12
BRANCH   8  22
ATOM     22  O   UNL d   1      38.766   1.515  12.937  0.00  0.00    -0.360 OA
ATOM     23  H   UNL d   1      38.740   1.464  12.320  0.00  0.00     0.217 HD
ENDBRANCH   8  22
BRANCH  10  24
ATOM     24  O   UNL d   1      41.432   0.271  14.907  0.00  0.00    -0.361 OA
ATOM     25  H   UNL d   1      41.124  -0.258  15.001  0.00  0.00     0.217 HD
ENDBRANCH  10  24
TORSDOF 5
ENDMDL
MODEL 5
REMARK VINA RESULT:    -5.956     20.088     21.647
REMARK INTER + INTRA:          -5.208
REMARK INTER:                  -7.032
REMARK INTRA:                   1.824
REMARK UNBOUND:                 1.967
REMARK  5 active torsions:
REMARK  status: ('A' for Active; 'I' for Inactive)
REMARK    1  A    between atoms: O_2  and  C_13 
REMARK    2  A    between atoms: O_3  and  C_19 
REMARK    3  A    between atoms: O_5  and  C_17 
REMARK    4  A    between atoms: O_6  and  C_21 
REMARK    5  A    between atoms: C_8  and  C_10 
ROOT
ATOM      1  O   UNL d   1      47.647 -15.260  12.666  0.00  0.00    -0.309 OA
ATOM      2  O   UNL d   1      48.692 -14.122  15.238  0.00  0.00    -0.287 OA
ATOM      3  C   UNL d   1      48.743 -15.338  14.005  0.00  0.00     0.081 A 
ATOM      4  C   UNL d   1      47.247 -14.424  13.042  0.00  0.00     0.090 A 
ATOM      5  C   UNL d   1      48.395 -15.717  13.148  0.00  0.00     0.095 A 
ATOM      6  C   UNL d   1      48.343 -14.501  14.380  0.00  0.00     0.190 A 
ATOM      7  C   UNL d   1      47.596 -14.044  13.899  0.00  0.00     0.094 A 
ATOM      8  C   UNL d   1      49.521 -15.802  14.517  0.00  0.00     0.085 A 
ATOM      9  C   UNL d   1      48.800 -16.587  12.744  0.00  0.00     0.075 A 
ATOM     10  C   UNL d   1      49.580 -17.069  13.240  0.00  0.00     0.071 A 
ATOM     11  C   UNL d   1      49.942 -16.674  14.132  0.00  0.00     0.074 A 
ENDROOT
BRANCH   4  12
ATOM     12  C   UNL d   1      46.499 -13.967  12.560  0.00  0.00     0.001 A 
ATOM     13  C   UNL d   1      45.556 -14.267  12.702  0.00  0.00     0.054 A 
ATOM     14  C   UNL d   1      44.808 -13.810  12.220  0.00  0.00     0.102 A 
ATOM     15  C   UNL d   1      45.004 -13.053  11.597  0.00  0.00     0.099 A 
ATOM     16  C   UNL d   1      45.947 -12.752  11.456  0.00  0.00     0.040 A 
ATOM     17  C   UNL d   1      46.695 -13.209  11.937  0.00  0.00     0.017 A 
BRANCH  14  18
ATOM     18  O   UNL d   1      43.865 -14.111  12.361  0.00  0.00    -0.353 OA
ATOM     19  C   UNL d   1      43.676 -14.917  12.922  0.00  0.00     0.210 C 
ENDBRANCH  14  18
BRANCH  15  20
ATOM     20  O   UNL d   1      44.256 -12.596  11.116  0.00  0.00    -0.358 OA
ATOM     21  H   UNL d   1      43.694 -12.858  11.095  0.00  0.00     0.217 HD
ENDBRANCH  15  20
ENDBRANCH   4  12
BRANCH   8  22
ATOM     22  O   UNL d   1      49.862 -15.414  15.374  0.00  0.00    -0.360 OA
ATOM     23  H   UNL d   1      49.485 -15.076  15.731  0.00  0.00     0.217 HD
ENDBRANCH   8  22
BRANCH  10  24
ATOM     24  O   UNL d   1      49.977 -17.905  12.860  0.00  0.00    -0.361 OA
ATOM     25  H   UNL d   1      50.408 -17.869  12.417  0.00  0.00     0.217 HD
ENDBRANCH  10  24
TORSDOF 5
ENDMDL
