MODEL 1
REMARK VINA RESULT:    -7.293      0.000      0.000
REMARK INTER + INTRA:          -7.124
REMARK INTER:                  -8.190
REMARK INTRA:                   1.066
REMARK UNBOUND:                 1.022
REMARK  3 active torsions:
REMARK  status: ('A' for Active; 'I' for Inactive)
REMARK    1  A    between atoms: O_2  and  C_10 
REMARK    2  A    between atoms: O_4  and  C_13 
REMARK    3  A    between atoms: C_7  and  C_9 
ROOT
ATOM      1  O   UNL d   1      35.210  48.685  40.842  0.00  0.00    -0.309 OA
ATOM      2  O   UNL d   1      32.824  47.834  39.236  0.00  0.00    -0.287 OA
ATOM      3  C   UNL d   1      33.493  48.529  40.674  0.00  0.00     0.081 A 
ATOM      4  C   UNL d   1      34.289  48.813  41.209  0.00  0.00     0.095 A 
ATOM      5  C   UNL d   1      35.336  48.274  39.939  0.00  0.00     0.090 A 
ATOM      6  C   UNL d   1      33.619  48.118  39.771  0.00  0.00     0.190 A 
ATOM      7  C   UNL d   1      32.528  48.655  41.044  0.00  0.00     0.085 A 
ATOM      8  C   UNL d   1      34.540  47.990  39.404  0.00  0.00     0.094 A 
ATOM      9  C   UNL d   1      34.174  49.243  42.151  0.00  0.00     0.075 A 
ATOM     10  C   UNL d   1      33.218  49.379  42.540  0.00  0.00     0.071 A 
ATOM     11  C   UNL d   1      32.390  49.083  41.983  0.00  0.00     0.074 A 
ENDROOT
BRANCH   5  12
ATOM     12  C   UNL d   1      36.257  48.146  39.571  0.00  0.00    -0.002 A 
ATOM     13  C   UNL d   1      36.885  47.502  40.008  0.00  0.00     0.014 A 
ATOM     14  C   UNL d   1      37.806  47.375  39.641  0.00  0.00     0.001 A 
ATOM     15  C   UNL d   1      38.100  47.891  38.837  0.00  0.00     0.000 A 
ATOM     16  C   UNL d   1      37.472  48.535  38.400  0.00  0.00     0.001 A 
ATOM     17  C   UNL d   1      36.551  48.663  38.767  0.00  0.00     0.014 A 
ENDBRANCH   5  12
BRANCH   7  18
ATOM     18  O   UNL d   1      31.740  48.368  40.500  0.00  0.00    -0.360 OA
ATOM     19  H   UNL d   1      31.758  47.833  40.188  0.00  0.00     0.217 HD
ENDBRANCH   7  18
BRANCH  10  20
ATOM     20  O   UNL d   1      33.096  49.790  43.444  0.00  0.00    -0.361 OA
ATOM     21  H   UNL d   1      32.595  50.135  43.562  0.00  0.00     0.217 HD
ENDBRANCH  10  20
TORSDOF 3
ENDMDL
MODEL 2
REMARK VINA RESULT:    -7.004     31.871     34.018
REMARK INTER + INTRA:          -6.801
REMARK INTER:                  -7.882
REMARK INTRA:                   1.080
REMARK UNBOUND:                 1.022
REMARK  3 active torsions:
REMARK  status: ('A' for Active; 'I' for Inactive)
REMARK    1  A    between atoms: O_2  and  C_10 
REMARK    2  A    between atoms: O_4  and  C_13 
REMARK    3  A    between atoms: C_7  and  C_9 
ROOT
ATOM      1  O   UNL d   1       1.274  40.967  40.335  0.00  0.00    -0.309 OA
ATOM      2  O   UNL d   1       1.901  42.991  42.458  0.00  0.00    -0.287 OA
ATOM      3  C   UNL d   1       0.746  42.028  41.598  0.00  0.00     0.081 A 
ATOM      4  C   UNL d   1       0.537  41.354  40.890  0.00  0.00     0.095 A 
ATOM      5  C   UNL d   1       2.219  41.255  40.487  0.00  0.00     0.090 A 
ATOM      6  C   UNL d   1       1.692  42.316  41.750  0.00  0.00     0.190 A 
ATOM      7  C   UNL d   1      -0.010  42.440  42.183  0.00  0.00     0.085 A 
ATOM      8  C   UNL d   1       2.428  41.930  41.195  0.00  0.00     0.094 A 
ATOM      9  C   UNL d   1      -0.443  41.044  40.719  0.00  0.00     0.075 A 
ATOM     10  C   UNL d   1      -1.215  41.442  41.293  0.00  0.00     0.071 A 
ATOM     11  C   UNL d   1      -0.997  42.145  42.030  0.00  0.00     0.074 A 
ENDROOT
BRANCH   5  12
ATOM     12  C   UNL d   1       2.955  40.868  39.932  0.00  0.00    -0.002 A 
ATOM     13  C   UNL d   1       3.149  39.888  39.971  0.00  0.00     0.014 A 
ATOM     14  C   UNL d   1       3.885  39.501  39.416  0.00  0.00     0.001 A 
ATOM     15  C   UNL d   1       4.428  40.094  38.822  0.00  0.00     0.000 A 
ATOM     16  C   UNL d   1       4.234  41.075  38.783  0.00  0.00     0.001 A 
ATOM     17  C   UNL d   1       3.498  41.462  39.338  0.00  0.00     0.014 A 
ENDBRANCH   5  12
BRANCH   7  18
ATOM     18  O   UNL d   1       0.210  43.114  42.888  0.00  0.00    -0.360 OA
ATOM     19  H   UNL d   1       0.528  43.624  42.740  0.00  0.00     0.217 HD
ENDBRANCH   7  18
BRANCH  10  20
ATOM     20  O   UNL d   1      -2.159  41.152  41.137  0.00  0.00    -0.361 OA
ATOM     21  H   UNL d   1      -2.585  41.233  41.580  0.00  0.00     0.217 HD
ENDBRANCH  10  20
TORSDOF 3
ENDMDL
MODEL 3
REMARK VINA RESULT:    -6.637      2.486      5.365
REMARK INTER + INTRA:          -6.391
REMARK INTER:                  -7.418
REMARK INTRA:                   1.026
REMARK UNBOUND:                 1.022
REMARK  3 active torsions:
REMARK  status: ('A' for Active; 'I' for Inactive)
REMARK    1  A    between atoms: O_2  and  C_10 
REMARK    2  A    between atoms: O_4  and  C_13 
REMARK    3  A    between atoms: C_7  and  C_9 
ROOT
ATOM      1  O   UNL d   1      31.572  48.676  40.656  0.00  0.00    -0.309 OA
ATOM      2  O   UNL d   1      31.152  50.054  43.287  0.00  0.00    -0.287 OA
ATOM      3  C   UNL d   1      32.203  49.271  42.154  0.00  0.00     0.081 A 
ATOM      4  C   UNL d   1      32.343  48.812  41.277  0.00  0.00     0.095 A 
ATOM      5  C   UNL d   1      30.661  48.999  40.911  0.00  0.00     0.090 A 
ATOM      6  C   UNL d   1      31.292  49.594  42.410  0.00  0.00     0.190 A 
ATOM      7  C   UNL d   1      32.997  49.420  42.812  0.00  0.00     0.085 A 
ATOM      8  C   UNL d   1      30.521  49.458  41.788  0.00  0.00     0.094 A 
ATOM      9  C   UNL d   1      33.286  48.470  40.997  0.00  0.00     0.075 A 
ATOM     10  C   UNL d   1      34.095  48.609  41.640  0.00  0.00     0.071 A 
ATOM     11  C   UNL d   1      33.949  49.087  42.553  0.00  0.00     0.074 A 
ENDROOT
BRANCH   5  12
ATOM     12  C   UNL d   1      29.889  48.862  40.289  0.00  0.00    -0.002 A 
ATOM     13  C   UNL d   1      29.484  47.954  40.187  0.00  0.00     0.014 A 
ATOM     14  C   UNL d   1      28.713  47.818  39.565  0.00  0.00     0.001 A 
ATOM     15  C   UNL d   1      28.347  48.590  39.046  0.00  0.00     0.000 A 
ATOM     16  C   UNL d   1      28.752  49.498  39.148  0.00  0.00     0.001 A 
ATOM     17  C   UNL d   1      29.523  49.635  39.770  0.00  0.00     0.014 A 
ENDBRANCH   5  12
BRANCH   7  18
ATOM     18  O   UNL d   1      32.845  49.881  43.687  0.00  0.00    -0.360 OA
ATOM     19  H   UNL d   1      33.317  50.160  43.976  0.00  0.00     0.217 HD
ENDBRANCH   7  18
BRANCH  10  20
ATOM     20  O   UNL d   1      35.005  48.284  41.380  0.00  0.00    -0.361 OA
ATOM     21  H   UNL d   1      35.146  47.683  41.435  0.00  0.00     0.217 HD
ENDBRANCH  10  20
TORSDOF 3
ENDMDL
MODEL 4
REMARK VINA RESULT:    -6.221     25.294     26.858
REMARK INTER + INTRA:          -5.926
REMARK INTER:                  -7.114
REMARK INTRA:                   1.187
REMARK UNBOUND:                 1.022
REMARK  3 active torsions:
REMARK  status: ('A' for Active; 'I' for Inactive)
REMARK    1  A    between atoms: O_2  and  C_10 
REMARK    2  A    between atoms: O_4  and  C_13 
REMARK    3  A    between atoms: C_7  and  C_9 
ROOT
ATOM      1  O   UNL d   1      10.752  36.505  38.684  0.00  0.00    -0.309 OA
ATOM      2  O   UNL d   1      12.684  36.220  36.406  0.00  0.00    -0.287 OA
ATOM      3  C   UNL d   1      12.259  35.924  38.059  0.00  0.00     0.081 A 
ATOM      4  C   UNL d   1      11.615  36.019  38.818  0.00  0.00     0.095 A 
ATOM      5  C   UNL d   1      10.532  36.896  37.790  0.00  0.00     0.090 A 
ATOM      6  C   UNL d   1      12.040  36.315  37.165  0.00  0.00     0.190 A 
ATOM      7  C   UNL d   1      13.162  35.421  38.184  0.00  0.00     0.085 A 
ATOM      8  C   UNL d   1      11.176  36.801  37.031  0.00  0.00     0.094 A 
ATOM      9  C   UNL d   1      11.830  35.617  39.755  0.00  0.00     0.075 A 
ATOM     10  C   UNL d   1      12.727  35.109  39.903  0.00  0.00     0.071 A 
ATOM     11  C   UNL d   1      13.398  35.010  39.113  0.00  0.00     0.074 A 
ENDROOT
BRANCH   5  12
ATOM     12  C   UNL d   1       9.669  37.382  37.655  0.00  0.00    -0.002 A 
ATOM     13  C   UNL d   1       9.392  38.097  38.298  0.00  0.00     0.014 A 
ATOM     14  C   UNL d   1       8.528  38.583  38.164  0.00  0.00     0.001 A 
ATOM     15  C   UNL d   1       7.942  38.354  37.386  0.00  0.00     0.000 A 
ATOM     16  C   UNL d   1       8.219  37.640  36.744  0.00  0.00     0.001 A 
ATOM     17  C   UNL d   1       9.083  37.154  36.878  0.00  0.00     0.014 A 
ENDBRANCH   5  12
BRANCH   7  18
ATOM     18  O   UNL d   1      13.799  35.332  37.418  0.00  0.00    -0.360 OA
ATOM     19  H   UNL d   1      13.672  35.605  36.877  0.00  0.00     0.217 HD
ENDBRANCH   7  18
BRANCH  10  20
ATOM     20  O   UNL d   1      12.943  34.720  40.798  0.00  0.00    -0.361 OA
ATOM     21  H   UNL d   1      13.038  35.093  41.284  0.00  0.00     0.217 HD
ENDBRANCH  10  20
TORSDOF 3
ENDMDL
MODEL 5
REMARK VINA RESULT:    -6.217     18.018     19.351
REMARK INTER + INTRA:          -5.922
REMARK INTER:                  -6.929
REMARK INTRA:                   1.007
REMARK UNBOUND:                 1.022
REMARK  3 active torsions:
REMARK  status: ('A' for Active; 'I' for Inactive)
REMARK    1  A    between atoms: O_2  and  C_10 
REMARK    2  A    between atoms: O_4  and  C_13 
REMARK    3  A    between atoms: C_7  and  C_9 
ROOT
ATOM      1  O   UNL d   1      40.268  30.753  46.483  0.00  0.00    -0.309 OA
ATOM      2  O   UNL d   1      38.771  32.870  44.974  0.00  0.00    -0.287 OA
ATOM      3  C   UNL d   1      40.270  32.161  45.474  0.00  0.00     0.081 A 
ATOM      4  C   UNL d   1      40.769  31.455  45.977  0.00  0.00     0.095 A 
ATOM      5  C   UNL d   1      39.268  30.757  46.486  0.00  0.00     0.090 A 
ATOM      6  C   UNL d   1      39.270  32.165  45.477  0.00  0.00     0.190 A 
ATOM      7  C   UNL d   1      40.779  32.898  44.942  0.00  0.00     0.085 A 
ATOM      8  C   UNL d   1      38.769  31.463  45.983  0.00  0.00     0.094 A 
ATOM      9  C   UNL d   1      41.811  31.438  45.983  0.00  0.00     0.075 A 
ATOM     10  C   UNL d   1      42.339  32.165  45.458  0.00  0.00     0.071 A 
ATOM     11  C   UNL d   1      41.820  32.900  44.934  0.00  0.00     0.074 A 
ENDROOT
BRANCH   5  12
ATOM     12  C   UNL d   1      38.767  30.055  46.993  0.00  0.00    -0.002 A 
ATOM     13  C   UNL d   1      38.496  29.207  46.537  0.00  0.00     0.014 A 
ATOM     14  C   UNL d   1      37.995  28.505  47.043  0.00  0.00     0.001 A 
ATOM     15  C   UNL d   1      37.765  28.652  48.005  0.00  0.00     0.000 A 
ATOM     16  C   UNL d   1      38.035  29.500  48.461  0.00  0.00     0.001 A 
ATOM     17  C   UNL d   1      38.536  30.202  47.955  0.00  0.00     0.014 A 
ENDBRANCH   5  12
BRANCH   7  18
ATOM     18  O   UNL d   1      40.269  33.599  44.443  0.00  0.00    -0.360 OA
ATOM     19  H   UNL d   1      39.658  33.537  44.359  0.00  0.00     0.217 HD
ENDBRANCH   7  18
BRANCH  10  20
ATOM     20  O   UNL d   1      43.340  32.158  45.457  0.00  0.00    -0.361 OA
ATOM     21  H   UNL d   1      43.645  31.647  45.631  0.00  0.00     0.217 HD
ENDBRANCH  10  20
TORSDOF 3
ENDMDL
