MODEL 1
REMARK VINA RESULT:    -6.404      0.000      0.000
REMARK INTER + INTRA:          -7.131
REMARK INTER:                  -8.144
REMARK INTRA:                   1.014
REMARK UNBOUND:                 0.958
REMARK  6 active torsions:
REMARK  status: ('A' for Active; 'I' for Inactive)
REMARK    1  A    between atoms: O_1  and  C_8 
REMARK    2  A    between atoms: O_2  and  C_9 
REMARK    3  A    between atoms: O_3  and  C_13 
REMARK    4  A    between atoms: C_5  and  C_11 
REMARK    5  A    between atoms: C_11  and  C_12 
REMARK    6  A    between atoms: C_12  and  C_13 
ROOT
ATOM      1  C   UNL d   1      24.930  42.329  11.237  0.00  0.00    -0.033 A 
ATOM      2  C   UNL d   1      24.505  43.016  10.647  0.00  0.00     0.050 A 
ATOM      3  C   UNL d   1      24.427  41.501  11.484  0.00  0.00     0.014 A 
ATOM      4  C   UNL d   1      23.577  42.874  10.303  0.00  0.00     0.099 A 
ATOM      5  C   UNL d   1      23.074  42.046  10.550  0.00  0.00     0.098 A 
ATOM      6  C   UNL d   1      23.498  41.360  11.140  0.00  0.00     0.040 A 
ENDROOT
BRANCH   1   7
ATOM      7  C   UNL d   1      25.858  42.471  11.581  0.00  0.00     0.018 C 
BRANCH   7   8
ATOM      8  C   UNL d   1      26.077  43.294  12.106  0.00  0.00     0.082 C 
BRANCH   8   9
ATOM      9  C   UNL d   1      26.969  43.381  12.550  0.00  0.00     0.165 C 
ATOM     10  O   UNL d   1      27.584  44.126  12.292  0.00  0.00    -0.647 OA
BRANCH   9  11
ATOM     11  O   UNL d   1      27.245  42.724  13.251  0.00  0.00    -0.773 OA
ATOM     12  H   UNL d   1      26.998  42.156  13.258  0.00  0.00     0.167 HD
ENDBRANCH   9  11
ENDBRANCH   8   9
ENDBRANCH   7   8
ENDBRANCH   1   7
BRANCH   4  13
ATOM     13  O   UNL d   1      23.152  43.561   9.713  0.00  0.00    -0.358 OA
ATOM     14  H   UNL d   1      23.278  43.568   9.106  0.00  0.00     0.217 HD
ENDBRANCH   4  13
BRANCH   5  15
ATOM     15  O   UNL d   1      22.145  41.904  10.206  0.00  0.00    -0.358 OA
ATOM     16  H   UNL d   1      21.972  41.345  10.003  0.00  0.00     0.217 HD
ENDBRANCH   5  15
TORSDOF 6
ENDMDL
MODEL 2
REMARK VINA RESULT:    -6.099      1.508      4.447
REMARK INTER + INTRA:          -6.746
REMARK INTER:                  -7.707
REMARK INTRA:                   0.961
REMARK UNBOUND:                 0.958
REMARK  6 active torsions:
REMARK  status: ('A' for Active; 'I' for Inactive)
REMARK    1  A    between atoms: O_1  and  C_8 
REMARK    2  A    between atoms: O_2  and  C_9 
REMARK    3  A    between atoms: O_3  and  C_13 
REMARK    4  A    between atoms: C_5  and  C_11 
REMARK    5  A    between atoms: C_11  and  C_12 
REMARK    6  A    between atoms: C_12  and  C_13 
ROOT
ATOM      1  C   UNL d   1      23.962  41.566  11.028  0.00  0.00    -0.033 A 
ATOM      2  C   UNL d   1      24.204  40.786  11.606  0.00  0.00     0.050 A 
ATOM      3  C   UNL d   1      24.578  42.352  10.967  0.00  0.00     0.014 A 
ATOM      4  C   UNL d   1      25.061  40.792  12.121  0.00  0.00     0.099 A 
ATOM      5  C   UNL d   1      25.676  41.578  12.060  0.00  0.00     0.098 A 
ATOM      6  C   UNL d   1      25.434  42.358  11.482  0.00  0.00     0.040 A 
ENDROOT
BRANCH   1   7
ATOM      7  C   UNL d   1      23.106  41.560  10.513  0.00  0.00     0.018 C 
BRANCH   7   8
ATOM      8  C   UNL d   1      23.114  41.370   9.531  0.00  0.00     0.082 C 
BRANCH   8   9
ATOM      9  C   UNL d   1      22.256  41.200   9.047  0.00  0.00     0.165 C 
ATOM     10  O   UNL d   1      21.609  41.949   8.900  0.00  0.00    -0.647 OA
BRANCH   9  11
ATOM     11  O   UNL d   1      22.044  40.283   8.710  0.00  0.00    -0.773 OA
ATOM     12  H   UNL d   1      21.876  39.838   9.108  0.00  0.00     0.167 HD
ENDBRANCH   9  11
ENDBRANCH   8   9
ENDBRANCH   7   8
ENDBRANCH   1   7
BRANCH   4  13
ATOM     13  O   UNL d   1      25.302  40.012  12.699  0.00  0.00    -0.358 OA
ATOM     14  H   UNL d   1      25.712  39.593  12.498  0.00  0.00     0.217 HD
ENDBRANCH   4  13
BRANCH   5  15
ATOM     15  O   UNL d   1      26.533  41.584  12.575  0.00  0.00    -0.358 OA
ATOM     16  H   UNL d   1      26.601  41.212  13.067  0.00  0.00     0.217 HD
ENDBRANCH   5  15
TORSDOF 6
ENDMDL
MODEL 3
REMARK VINA RESULT:    -5.433     19.642     21.579
REMARK INTER + INTRA:          -5.905
REMARK INTER:                  -6.860
REMARK INTRA:                   0.955
REMARK UNBOUND:                 0.958
REMARK  6 active torsions:
REMARK  status: ('A' for Active; 'I' for Inactive)
REMARK    1  A    between atoms: O_1  and  C_8 
REMARK    2  A    between atoms: O_2  and  C_9 
REMARK    3  A    between atoms: O_3  and  C_13 
REMARK    4  A    between atoms: C_5  and  C_11 
REMARK    5  A    between atoms: C_11  and  C_12 
REMARK    6  A    between atoms: C_12  and  C_13 
ROOT
ATOM      1  C   UNL d   1      10.779  26.513  13.758  0.00  0.00    -0.033 A 
ATOM      2  C   UNL d   1      11.436  25.828  14.074  0.00  0.00     0.050 A 
ATOM      3  C   UNL d   1       9.850  26.237  13.511  0.00  0.00     0.014 A 
ATOM      4  C   UNL d   1      11.164  24.868  14.142  0.00  0.00     0.099 A 
ATOM      5  C   UNL d   1      10.235  24.593  13.894  0.00  0.00     0.098 A 
ATOM      6  C   UNL d   1       9.578  25.277  13.579  0.00  0.00     0.040 A 
ENDROOT
BRANCH   1   7
ATOM      7  C   UNL d   1      11.050  27.473  13.690  0.00  0.00     0.018 C 
BRANCH   7   8
ATOM      8  C   UNL d   1      11.605  27.782  12.918  0.00  0.00     0.082 C 
BRANCH   8   9
ATOM      9  C   UNL d   1      11.961  28.716  12.900  0.00  0.00     0.165 C 
ATOM     10  O   UNL d   1      11.343  29.484  12.730  0.00  0.00    -0.647 OA
BRANCH   9  11
ATOM     11  O   UNL d   1      12.935  28.883  13.053  0.00  0.00    -0.773 OA
ATOM     12  H   UNL d   1      13.314  28.410  13.183  0.00  0.00     0.167 HD
ENDBRANCH   9  11
ENDBRANCH   8   9
ENDBRANCH   7   8
ENDBRANCH   1   7
BRANCH   4  13
ATOM     13  O   UNL d   1      11.821  24.184  14.458  0.00  0.00    -0.358 OA
ATOM     14  H   UNL d   1      11.948  23.690  14.105  0.00  0.00     0.217 HD
ENDBRANCH   4  13
BRANCH   5  15
ATOM     15  O   UNL d   1       9.964  23.633  13.962  0.00  0.00    -0.358 OA
ATOM     16  H   UNL d   1       9.519  23.410  13.593  0.00  0.00     0.217 HD
ENDBRANCH   5  15
TORSDOF 6
ENDMDL
MODEL 4
REMARK VINA RESULT:    -5.127      2.456      3.704
REMARK INTER + INTRA:          -5.518
REMARK INTER:                  -6.449
REMARK INTRA:                   0.931
REMARK UNBOUND:                 0.958
REMARK  6 active torsions:
REMARK  status: ('A' for Active; 'I' for Inactive)
REMARK    1  A    between atoms: O_1  and  C_8 
REMARK    2  A    between atoms: O_2  and  C_9 
REMARK    3  A    between atoms: O_3  and  C_13 
REMARK    4  A    between atoms: C_5  and  C_11 
REMARK    5  A    between atoms: C_11  and  C_12 
REMARK    6  A    between atoms: C_12  and  C_13 
ROOT
ATOM      1  C   UNL d   1      22.491  41.615   9.187  0.00  0.00    -0.033 A 
ATOM      2  C   UNL d   1      21.877  40.838   9.049  0.00  0.00     0.050 A 
ATOM      3  C   UNL d   1      22.290  42.494   8.755  0.00  0.00     0.014 A 
ATOM      4  C   UNL d   1      21.061  40.941   8.480  0.00  0.00     0.099 A 
ATOM      5  C   UNL d   1      20.860  41.820   8.048  0.00  0.00     0.098 A 
ATOM      6  C   UNL d   1      21.475  42.597   8.185  0.00  0.00     0.040 A 
ENDROOT
BRANCH   1   7
ATOM      7  C   UNL d   1      23.307  41.513   9.756  0.00  0.00     0.018 C 
BRANCH   7   8
ATOM      8  C   UNL d   1      23.261  41.710  10.735  0.00  0.00     0.082 C 
BRANCH   8   9
ATOM      9  C   UNL d   1      24.075  41.604  11.306  0.00  0.00     0.165 C 
ATOM     10  O   UNL d   1      24.285  40.716  11.716  0.00  0.00    -0.647 OA
BRANCH   9  11
ATOM     11  O   UNL d   1      24.679  42.384  11.466  0.00  0.00    -0.773 OA
ATOM     12  H   UNL d   1      25.149  42.497  11.077  0.00  0.00     0.167 HD
ENDBRANCH   9  11
ENDBRANCH   8   9
ENDBRANCH   7   8
ENDBRANCH   1   7
BRANCH   4  13
ATOM     13  O   UNL d   1      20.446  40.164   8.342  0.00  0.00    -0.358 OA
ATOM     14  H   UNL d   1      19.953  40.221   7.971  0.00  0.00     0.217 HD
ENDBRANCH   4  13
BRANCH   5  15
ATOM     15  O   UNL d   1      20.045  41.922   7.478  0.00  0.00    -0.358 OA
ATOM     16  H   UNL d   1      19.829  42.488   7.344  0.00  0.00     0.217 HD
ENDBRANCH   5  15
TORSDOF 6
ENDMDL
MODEL 5
REMARK VINA RESULT:    -5.051     21.024     22.604
REMARK INTER + INTRA:          -5.421
REMARK INTER:                  -6.419
REMARK INTRA:                   0.997
REMARK UNBOUND:                 0.958
REMARK  6 active torsions:
REMARK  status: ('A' for Active; 'I' for Inactive)
REMARK    1  A    between atoms: O_1  and  C_8 
REMARK    2  A    between atoms: O_2  and  C_9 
REMARK    3  A    between atoms: O_3  and  C_13 
REMARK    4  A    between atoms: C_5  and  C_11 
REMARK    5  A    between atoms: C_11  and  C_12 
REMARK    6  A    between atoms: C_12  and  C_13 
ROOT
ATOM      1  C   UNL d   1       3.418  43.878  17.652  0.00  0.00    -0.033 A 
ATOM      2  C   UNL d   1       4.162  43.629  17.031  0.00  0.00     0.050 A 
ATOM      3  C   UNL d   1       2.796  44.623  17.413  0.00  0.00     0.014 A 
ATOM      4  C   UNL d   1       4.284  44.125  16.172  0.00  0.00     0.099 A 
ATOM      5  C   UNL d   1       3.662  44.871  15.933  0.00  0.00     0.098 A 
ATOM      6  C   UNL d   1       2.918  45.120  16.553  0.00  0.00     0.040 A 
ENDROOT
BRANCH   1   7
ATOM      7  C   UNL d   1       3.296  43.381  18.511  0.00  0.00     0.018 C 
BRANCH   7   8
ATOM      8  C   UNL d   1       2.569  42.701  18.596  0.00  0.00     0.082 C 
BRANCH   8   9
ATOM      9  C   UNL d   1       2.547  42.088  19.387  0.00  0.00     0.165 C 
ATOM     10  O   UNL d   1       2.320  41.122  19.264  0.00  0.00    -0.647 OA
BRANCH   9  11
ATOM     11  O   UNL d   1       2.753  42.442  20.299  0.00  0.00    -0.773 OA
ATOM     12  H   UNL d   1       3.177  42.160  20.652  0.00  0.00     0.167 HD
ENDBRANCH   9  11
ENDBRANCH   8   9
ENDBRANCH   7   8
ENDBRANCH   1   7
BRANCH   4  13
ATOM     13  O   UNL d   1       5.027  43.876  15.551  0.00  0.00    -0.358 OA
ATOM     14  H   UNL d   1       4.987  43.360  15.210  0.00  0.00     0.217 HD
ENDBRANCH   4  13
BRANCH   5  15
ATOM     15  O   UNL d   1       3.784  45.368  15.073  0.00  0.00    -0.358 OA
ATOM     16  H   UNL d   1       4.343  45.586  14.918  0.00  0.00     0.217 HD
ENDBRANCH   5  15
TORSDOF 6
ENDMDL
