MODEL 1
REMARK VINA RESULT:    -9.122      0.000      0.000
REMARK INTER + INTRA:           0.184
REMARK INTER:                 -12.368
REMARK INTRA:                  12.552
REMARK UNBOUND:                12.506
REMARK  9 active torsions:
REMARK  status: ('A' for Active; 'I' for Inactive)
REMARK    1  A    between atoms: C_15  and  O_2 
REMARK    2  A    between atoms: O_2  and  C_17 
REMARK    3  A    between atoms: C_11  and  O_3 
REMARK    4  A    between atoms: C_12  and  O_4 
REMARK    5  A    between atoms: C_13  and  O_5 
REMARK    6  A    between atoms: O_8  and  C_23 
REMARK    7  A    between atoms: O_9  and  C_28 
REMARK    8  A    between atoms: O_10  and  C_31 
REMARK    9  A    between atoms: C_18  and  C_22 
ROOT
ATOM      1  O   UNL d   1      22.787  41.445   9.744  0.00  0.00    -0.306 OA
ATOM      2  O   UNL d   1      24.760  42.385   7.688  0.00  0.00    -0.284 OA
ATOM      3  C   UNL d   1      24.426  41.652   9.222  0.00  0.00     0.157 A 
ATOM      4  C   UNL d   1      23.768  41.339   9.907  0.00  0.00     0.123 A 
ATOM      5  C   UNL d   1      24.102  42.072   8.374  0.00  0.00     0.223 A 
ATOM      6  C   UNL d   1      23.121  42.178   8.211  0.00  0.00     0.084 A 
ATOM      7  C   UNL d   1      22.464  41.865   8.896  0.00  0.00     0.096 A 
ATOM      8  C   UNL d   1      22.800  42.617   7.322  0.00  0.00     0.085 A 
ATOM      9  C   UNL d   1      21.439  41.969   8.740  0.00  0.00     0.075 A 
ATOM     10  C   UNL d   1      21.779  42.731   7.145  0.00  0.00     0.074 A 
ATOM     11  C   UNL d   1      21.094  42.405   7.859  0.00  0.00     0.071 A 
ENDROOT
BRANCH   3  12
ATOM     12  O   UNL d   1      25.406  41.546   9.385  0.00  0.00    -0.311 OA
BRANCH  12  13
ATOM     13  C   UNL d   1      25.969  42.347   9.587  0.00  0.00     0.298 A 
ATOM     14  O   UNL d   1      25.546  43.176   9.953  0.00  0.00    -0.351 OA
ATOM     15  C   UNL d   1      26.109  43.978  10.155  0.00  0.00     0.152 A 
ATOM     16  C   UNL d   1      27.095  43.950   9.992  0.00  0.00     0.178 A 
ATOM     17  C   UNL d   1      25.686  44.807  10.520  0.00  0.00     0.042 C 
ATOM     18  C   UNL d   1      27.519  43.121   9.627  0.00  0.00     0.183 A 
ATOM     19  C   UNL d   1      26.956  42.320   9.424  0.00  0.00     0.205 A 
BRANCH  16  20
ATOM     20  O   UNL d   1      27.658  44.751  10.195  0.00  0.00    -0.390 OA
ATOM     21  H   UNL d   1      27.693  45.217   9.786  0.00  0.00     0.210 HD
ENDBRANCH  16  20
BRANCH  18  22
ATOM     22  O   UNL d   1      28.505  43.093   9.464  0.00  0.00    -0.390 OA
ATOM     23  H   UNL d   1      28.897  43.299   9.898  0.00  0.00     0.210 HD
ENDBRANCH  18  22
BRANCH  19  24
ATOM     24  O   UNL d   1      27.379  41.491   9.059  0.00  0.00    -0.388 OA
ATOM     25  H   UNL d   1      27.074  41.142   8.647  0.00  0.00     0.210 HD
ENDBRANCH  19  24
ENDBRANCH  12  13
ENDBRANCH   3  12
BRANCH   4  26
ATOM     26  C   UNL d   1      24.091  40.920  10.755  0.00  0.00     0.001 A 
ATOM     27  C   UNL d   1      23.919  41.368  11.632  0.00  0.00     0.017 A 
ATOM     28  C   UNL d   1      24.242  40.949  12.481  0.00  0.00     0.037 A 
ATOM     29  C   UNL d   1      24.738  40.081  12.452  0.00  0.00     0.065 A 
ATOM     30  C   UNL d   1      24.910  39.632  11.575  0.00  0.00     0.037 A 
ATOM     31  C   UNL d   1      24.587  40.052  10.727  0.00  0.00     0.017 A 
BRANCH  29  32
ATOM     32  O   UNL d   1      25.061  39.662  13.300  0.00  0.00    -0.361 OA
ATOM     33  H   UNL d   1      24.706  39.675  13.808  0.00  0.00     0.217 HD
ENDBRANCH  29  32
ENDBRANCH   4  26
BRANCH   8  34
ATOM     34  O   UNL d   1      23.466  42.926   6.644  0.00  0.00    -0.360 OA
ATOM     35  H   UNL d   1      23.310  42.949   6.044  0.00  0.00     0.217 HD
ENDBRANCH   8  34
BRANCH  11  36
ATOM     36  O   UNL d   1      20.112  42.509   7.700  0.00  0.00    -0.361 OA
ATOM     37  H   UNL d   1      19.884  43.057   7.520  0.00  0.00     0.217 HD
ENDBRANCH  11  36
TORSDOF 9
ENDMDL
MODEL 2
REMARK VINA RESULT:    -8.519      1.558      4.382
REMARK INTER + INTRA:           0.998
REMARK INTER:                 -11.456
REMARK INTRA:                  12.454
REMARK UNBOUND:                12.506
REMARK  9 active torsions:
REMARK  status: ('A' for Active; 'I' for Inactive)
REMARK    1  A    between atoms: C_15  and  O_2 
REMARK    2  A    between atoms: O_2  and  C_17 
REMARK    3  A    between atoms: C_11  and  O_3 
REMARK    4  A    between atoms: C_12  and  O_4 
REMARK    5  A    between atoms: C_13  and  O_5 
REMARK    6  A    between atoms: O_8  and  C_23 
REMARK    7  A    between atoms: O_9  and  C_28 
REMARK    8  A    between atoms: O_10  and  C_31 
REMARK    9  A    between atoms: C_18  and  C_22 
ROOT
ATOM      1  O   UNL d   1      25.668  42.944   9.476  0.00  0.00    -0.306 OA
ATOM      2  O   UNL d   1      24.390  42.186   6.870  0.00  0.00    -0.284 OA
ATOM      3  C   UNL d   1      24.564  41.957   8.578  0.00  0.00     0.157 A 
ATOM      4  C   UNL d   1      24.990  42.210   9.447  0.00  0.00     0.123 A 
ATOM      5  C   UNL d   1      24.816  42.439   7.739  0.00  0.00     0.223 A 
ATOM      6  C   UNL d   1      25.494  43.173   7.768  0.00  0.00     0.084 A 
ATOM      7  C   UNL d   1      25.920  43.425   8.637  0.00  0.00     0.096 A 
ATOM      8  C   UNL d   1      25.747  43.665   6.886  0.00  0.00     0.085 A 
ATOM      9  C   UNL d   1      26.629  44.188   8.683  0.00  0.00     0.075 A 
ATOM     10  C   UNL d   1      26.453  44.431   6.909  0.00  0.00     0.074 A 
ATOM     11  C   UNL d   1      26.897  44.695   7.813  0.00  0.00     0.071 A 
ENDROOT
BRANCH   3  12
ATOM     12  O   UNL d   1      23.885  41.223   8.548  0.00  0.00    -0.311 OA
BRANCH  12  13
ATOM     13  C   UNL d   1      22.936  41.429   8.310  0.00  0.00     0.298 A 
ATOM     14  O   UNL d   1      22.555  42.332   8.508  0.00  0.00    -0.351 OA
ATOM     15  C   UNL d   1      21.606  42.538   8.270  0.00  0.00     0.152 A 
ATOM     16  C   UNL d   1      21.037  41.840   7.835  0.00  0.00     0.178 A 
ATOM     17  C   UNL d   1      21.225  43.441   8.468  0.00  0.00     0.042 C 
ATOM     18  C   UNL d   1      21.418  40.937   7.637  0.00  0.00     0.183 A 
ATOM     19  C   UNL d   1      22.367  40.731   7.875  0.00  0.00     0.205 A 
BRANCH  16  20
ATOM     20  O   UNL d   1      20.088  42.046   7.597  0.00  0.00    -0.390 OA
ATOM     21  H   UNL d   1      19.683  41.584   7.510  0.00  0.00     0.210 HD
ENDBRANCH  16  20
BRANCH  18  22
ATOM     22  O   UNL d   1      20.849  40.239   7.201  0.00  0.00    -0.390 OA
ATOM     23  H   UNL d   1      20.248  40.349   7.098  0.00  0.00     0.210 HD
ENDBRANCH  18  22
BRANCH  19  24
ATOM     24  O   UNL d   1      22.748  39.828   7.677  0.00  0.00    -0.388 OA
ATOM     25  H   UNL d   1      23.313  39.777   7.427  0.00  0.00     0.210 HD
ENDBRANCH  19  24
ENDBRANCH  12  13
ENDBRANCH   3  12
BRANCH   4  26
ATOM     26  C   UNL d   1      24.737  41.728  10.286  0.00  0.00     0.001 A 
ATOM     27  C   UNL d   1      25.104  40.815  10.468  0.00  0.00     0.017 A 
ATOM     28  C   UNL d   1      24.851  40.334  11.307  0.00  0.00     0.037 A 
ATOM     29  C   UNL d   1      24.233  40.765  11.964  0.00  0.00     0.065 A 
ATOM     30  C   UNL d   1      23.866  41.677  11.782  0.00  0.00     0.037 A 
ATOM     31  C   UNL d   1      24.119  42.159  10.943  0.00  0.00     0.017 A 
BRANCH  29  32
ATOM     32  O   UNL d   1      23.980  40.283  12.804  0.00  0.00    -0.361 OA
ATOM     33  H   UNL d   1      23.799  39.691  12.778  0.00  0.00     0.217 HD
ENDBRANCH  29  32
ENDBRANCH   4  26
BRANCH   8  34
ATOM     34  O   UNL d   1      25.315  43.405   6.023  0.00  0.00    -0.360 OA
ATOM     35  H   UNL d   1      25.539  42.929   5.694  0.00  0.00     0.217 HD
ENDBRANCH   8  34
BRANCH  11  36
ATOM     36  O   UNL d   1      27.576  45.428   7.847  0.00  0.00    -0.361 OA
ATOM     37  H   UNL d   1      27.627  45.780   8.355  0.00  0.00     0.217 HD
ENDBRANCH  11  36
TORSDOF 9
ENDMDL
MODEL 3
REMARK VINA RESULT:    -8.072      2.101      3.193
REMARK INTER + INTRA:           1.602
REMARK INTER:                 -11.241
REMARK INTRA:                  12.843
REMARK UNBOUND:                12.506
REMARK  9 active torsions:
REMARK  status: ('A' for Active; 'I' for Inactive)
REMARK    1  A    between atoms: C_15  and  O_2 
REMARK    2  A    between atoms: O_2  and  C_17 
REMARK    3  A    between atoms: C_11  and  O_3 
REMARK    4  A    between atoms: C_12  and  O_4 
REMARK    5  A    between atoms: C_13  and  O_5 
REMARK    6  A    between atoms: O_8  and  C_23 
REMARK    7  A    between atoms: O_9  and  C_28 
REMARK    8  A    between atoms: O_10  and  C_31 
REMARK    9  A    between atoms: C_18  and  C_22 
ROOT
ATOM      1  O   UNL d   1      25.178  42.256   8.444  0.00  0.00    -0.306 OA
ATOM      2  O   UNL d   1      26.479  44.931   8.832  0.00  0.00    -0.284 OA
ATOM      3  C   UNL d   1      25.768  43.498   9.497  0.00  0.00     0.157 A 
ATOM      4  C   UNL d   1      25.334  42.607   9.367  0.00  0.00     0.123 A 
ATOM      5  C   UNL d   1      26.046  44.039   8.703  0.00  0.00     0.223 A 
ATOM      6  C   UNL d   1      25.889  43.688   7.779  0.00  0.00     0.084 A 
ATOM      7  C   UNL d   1      25.455  42.797   7.650  0.00  0.00     0.096 A 
ATOM      8  C   UNL d   1      26.183  44.263   6.962  0.00  0.00     0.085 A 
ATOM      9  C   UNL d   1      25.285  42.418   6.694  0.00  0.00     0.075 A 
ATOM     10  C   UNL d   1      26.023  43.904   5.997  0.00  0.00     0.074 A 
ATOM     11  C   UNL d   1      25.571  42.976   5.862  0.00  0.00     0.071 A 
ENDROOT
BRANCH   3  12
ATOM     12  O   UNL d   1      25.925  43.849  10.420  0.00  0.00    -0.311 OA
BRANCH  12  13
ATOM     13  C   UNL d   1      26.853  44.066  10.721  0.00  0.00     0.298 A 
ATOM     14  O   UNL d   1      27.635  43.600  10.308  0.00  0.00    -0.351 OA
ATOM     15  C   UNL d   1      28.564  43.817  10.610  0.00  0.00     0.152 A 
ATOM     16  C   UNL d   1      28.710  44.501  11.324  0.00  0.00     0.178 A 
ATOM     17  C   UNL d   1      29.346  43.350  10.196  0.00  0.00     0.042 C 
ATOM     18  C   UNL d   1      27.928  44.968  11.737  0.00  0.00     0.183 A 
ATOM     19  C   UNL d   1      27.000  44.750  11.436  0.00  0.00     0.205 A 
BRANCH  16  20
ATOM     20  O   UNL d   1      29.639  44.718  11.626  0.00  0.00    -0.390 OA
ATOM     21  H   UNL d   1      30.123  44.427  11.371  0.00  0.00     0.210 HD
ENDBRANCH  16  20
BRANCH  18  22
ATOM     22  O   UNL d   1      28.075  45.652  12.452  0.00  0.00    -0.390 OA
ATOM     23  H   UNL d   1      28.317  45.483  12.997  0.00  0.00     0.210 HD
ENDBRANCH  18  22
BRANCH  19  24
ATOM     24  O   UNL d   1      26.218  45.217  11.849  0.00  0.00    -0.388 OA
ATOM     25  H   UNL d   1      26.265  45.813  12.015  0.00  0.00     0.210 HD
ENDBRANCH  19  24
ENDBRANCH  12  13
ENDBRANCH   3  12
BRANCH   4  26
ATOM     26  C   UNL d   1      25.057  42.066  10.162  0.00  0.00     0.001 A 
ATOM     27  C   UNL d   1      25.616  41.291  10.459  0.00  0.00     0.017 A 
ATOM     28  C   UNL d   1      25.338  40.751  11.253  0.00  0.00     0.037 A 
ATOM     29  C   UNL d   1      24.503  40.984  11.750  0.00  0.00     0.065 A 
ATOM     30  C   UNL d   1      23.944  41.758  11.452  0.00  0.00     0.037 A 
ATOM     31  C   UNL d   1      24.221  42.299  10.658  0.00  0.00     0.017 A 
BRANCH  29  32
ATOM     32  O   UNL d   1      24.225  40.443  12.544  0.00  0.00    -0.361 OA
ATOM     33  H   UNL d   1      24.476  39.884  12.641  0.00  0.00     0.217 HD
ENDBRANCH  29  32
ENDBRANCH   4  26
BRANCH   8  34
ATOM     34  O   UNL d   1      26.616  45.153   7.103  0.00  0.00    -0.360 OA
ATOM     35  H   UNL d   1      26.828  45.476   6.616  0.00  0.00     0.217 HD
ENDBRANCH   8  34
BRANCH  11  36
ATOM     36  O   UNL d   1      25.413  42.622   4.940  0.00  0.00    -0.361 OA
ATOM     37  H   UNL d   1      25.842  42.701   4.500  0.00  0.00     0.217 HD
ENDBRANCH  11  36
TORSDOF 9
ENDMDL
MODEL 4
REMARK VINA RESULT:    -7.906      2.840      5.525
REMARK INTER + INTRA:           1.826
REMARK INTER:                 -10.669
REMARK INTRA:                  12.495
REMARK UNBOUND:                12.506
REMARK  9 active torsions:
REMARK  status: ('A' for Active; 'I' for Inactive)
REMARK    1  A    between atoms: C_15  and  O_2 
REMARK    2  A    between atoms: O_2  and  C_17 
REMARK    3  A    between atoms: C_11  and  O_3 
REMARK    4  A    between atoms: C_12  and  O_4 
REMARK    5  A    between atoms: C_13  and  O_5 
REMARK    6  A    between atoms: O_8  and  C_23 
REMARK    7  A    between atoms: O_9  and  C_28 
REMARK    8  A    between atoms: O_10  and  C_31 
REMARK    9  A    between atoms: C_18  and  C_22 
ROOT
ATOM      1  O   UNL d   1      28.005  43.073  10.866  0.00  0.00    -0.306 OA
ATOM      2  O   UNL d   1      25.951  44.778   9.498  0.00  0.00    -0.284 OA
ATOM      3  C   UNL d   1      27.609  44.396   9.821  0.00  0.00     0.157 A 
ATOM      4  C   UNL d   1      28.294  43.828  10.277  0.00  0.00     0.123 A 
ATOM      5  C   UNL d   1      26.636  44.210   9.954  0.00  0.00     0.223 A 
ATOM      6  C   UNL d   1      26.347  43.455  10.543  0.00  0.00     0.084 A 
ATOM      7  C   UNL d   1      27.031  42.886  10.999  0.00  0.00     0.096 A 
ATOM      8  C   UNL d   1      25.329  43.273  10.671  0.00  0.00     0.085 A 
ATOM      9  C   UNL d   1      26.746  42.096  11.615  0.00  0.00     0.075 A 
ATOM     10  C   UNL d   1      25.020  42.488  11.283  0.00  0.00     0.074 A 
ATOM     11  C   UNL d   1      25.733  41.896  11.758  0.00  0.00     0.071 A 
ENDROOT
BRANCH   3  12
ATOM     12  O   UNL d   1      27.898  45.151   9.232  0.00  0.00    -0.311 OA
BRANCH  12  13
ATOM     13  C   UNL d   1      27.721  46.096   9.508  0.00  0.00     0.298 A 
ATOM     14  O   UNL d   1      27.718  46.342  10.477  0.00  0.00    -0.351 OA
ATOM     15  C   UNL d   1      27.541  47.287  10.752  0.00  0.00     0.152 A 
ATOM     16  C   UNL d   1      27.366  47.986  10.059  0.00  0.00     0.178 A 
ATOM     17  C   UNL d   1      27.538  47.533  11.722  0.00  0.00     0.042 C 
ATOM     18  C   UNL d   1      27.369  47.739   9.089  0.00  0.00     0.183 A 
ATOM     19  C   UNL d   1      27.546  46.795   8.814  0.00  0.00     0.205 A 
BRANCH  16  20
ATOM     20  O   UNL d   1      27.189  48.930  10.334  0.00  0.00    -0.390 OA
ATOM     21  H   UNL d   1      26.703  49.236  10.100  0.00  0.00     0.210 HD
ENDBRANCH  16  20
BRANCH  18  22
ATOM     22  O   UNL d   1      27.195  48.438   8.395  0.00  0.00    -0.390 OA
ATOM     23  H   UNL d   1      27.294  49.036   8.526  0.00  0.00     0.210 HD
ENDBRANCH  18  22
BRANCH  19  24
ATOM     24  O   UNL d   1      27.549  46.548   7.845  0.00  0.00    -0.388 OA
ATOM     25  H   UNL d   1      27.019  46.548   7.524  0.00  0.00     0.210 HD
ENDBRANCH  19  24
ENDBRANCH  12  13
ENDBRANCH   3  12
BRANCH   4  26
ATOM     26  C   UNL d   1      29.267  44.014  10.144  0.00  0.00     0.001 A 
ATOM     27  C   UNL d   1      29.717  43.740   9.295  0.00  0.00     0.017 A 
ATOM     28  C   UNL d   1      30.691  43.926   9.162  0.00  0.00     0.037 A 
ATOM     29  C   UNL d   1      31.214  44.386   9.879  0.00  0.00     0.065 A 
ATOM     30  C   UNL d   1      30.764  44.661  10.729  0.00  0.00     0.037 A 
ATOM     31  C   UNL d   1      29.790  44.474  10.861  0.00  0.00     0.017 A 
BRANCH  29  32
ATOM     32  O   UNL d   1      32.188  44.573   9.746  0.00  0.00    -0.361 OA
ATOM     33  H   UNL d   1      32.605  44.123   9.839  0.00  0.00     0.217 HD
ENDBRANCH  29  32
ENDBRANCH   4  26
BRANCH   8  34
ATOM     34  O   UNL d   1      24.653  43.848  10.210  0.00  0.00    -0.360 OA
ATOM     35  H   UNL d   1      24.836  44.351   9.896  0.00  0.00     0.217 HD
ENDBRANCH   8  34
BRANCH  11  36
ATOM     36  O   UNL d   1      25.448  41.140  12.348  0.00  0.00    -0.361 OA
ATOM     37  H   UNL d   1      25.854  40.696  12.500  0.00  0.00     0.217 HD
ENDBRANCH  11  36
TORSDOF 9
ENDMDL
MODEL 5
REMARK VINA RESULT:    -7.862      2.829      5.604
REMARK INTER + INTRA:           1.886
REMARK INTER:                 -10.702
REMARK INTRA:                  12.588
REMARK UNBOUND:                12.506
REMARK  9 active torsions:
REMARK  status: ('A' for Active; 'I' for Inactive)
REMARK    1  A    between atoms: C_15  and  O_2 
REMARK    2  A    between atoms: O_2  and  C_17 
REMARK    3  A    between atoms: C_11  and  O_3 
REMARK    4  A    between atoms: C_12  and  O_4 
REMARK    5  A    between atoms: C_13  and  O_5 
REMARK    6  A    between atoms: O_8  and  C_23 
REMARK    7  A    between atoms: O_9  and  C_28 
REMARK    8  A    between atoms: O_10  and  C_31 
REMARK    9  A    between atoms: C_18  and  C_22 
ROOT
ATOM      1  O   UNL d   1      24.146  42.130   6.979  0.00  0.00    -0.306 OA
ATOM      2  O   UNL d   1      22.381  40.354   5.328  0.00  0.00    -0.284 OA
ATOM      3  C   UNL d   1      22.811  41.033   6.862  0.00  0.00     0.157 A 
ATOM      4  C   UNL d   1      23.400  41.626   7.412  0.00  0.00     0.123 A 
ATOM      5  C   UNL d   1      22.969  40.946   5.878  0.00  0.00     0.223 A 
ATOM      6  C   UNL d   1      23.716  41.451   5.445  0.00  0.00     0.084 A 
ATOM      7  C   UNL d   1      24.304  42.043   5.996  0.00  0.00     0.096 A 
ATOM      8  C   UNL d   1      23.868  41.350   4.420  0.00  0.00     0.085 A 
ATOM      9  C   UNL d   1      25.086  42.576   5.558  0.00  0.00     0.075 A 
ATOM     10  C   UNL d   1      24.644  41.873   3.961  0.00  0.00     0.074 A 
ATOM     11  C   UNL d   1      25.257  42.490   4.534  0.00  0.00     0.071 A 
ENDROOT
BRANCH   3  12
ATOM     12  O   UNL d   1      22.064  40.528   7.295  0.00  0.00    -0.311 OA
BRANCH  12  13
ATOM     13  C   UNL d   1      21.115  40.785   7.113  0.00  0.00     0.298 A 
ATOM     14  O   UNL d   1      20.912  41.635   6.627  0.00  0.00    -0.351 OA
ATOM     15  C   UNL d   1      19.963  41.892   6.444  0.00  0.00     0.152 A 
ATOM     16  C   UNL d   1      19.217  41.299   6.748  0.00  0.00     0.178 A 
ATOM     17  C   UNL d   1      19.759  42.742   5.958  0.00  0.00     0.042 C 
ATOM     18  C   UNL d   1      19.421  40.449   7.234  0.00  0.00     0.183 A 
ATOM     19  C   UNL d   1      20.370  40.192   7.416  0.00  0.00     0.205 A 
BRANCH  16  20
ATOM     20  O   UNL d   1      18.268  41.556   6.566  0.00  0.00    -0.390 OA
ATOM     21  H   UNL d   1      17.856  41.123   6.399  0.00  0.00     0.210 HD
ENDBRANCH  16  20
BRANCH  18  22
ATOM     22  O   UNL d   1      18.675  39.856   7.538  0.00  0.00    -0.390 OA
ATOM     23  H   UNL d   1      18.673  39.632   8.116  0.00  0.00     0.210 HD
ENDBRANCH  18  22
BRANCH  19  24
ATOM     24  O   UNL d   1      20.573  39.342   7.903  0.00  0.00    -0.388 OA
ATOM     25  H   UNL d   1      20.132  38.912   7.973  0.00  0.00     0.210 HD
ENDBRANCH  19  24
ENDBRANCH  12  13
ENDBRANCH   3  12
BRANCH   4  26
ATOM     26  C   UNL d   1      23.242  41.713   8.396  0.00  0.00     0.001 A 
ATOM     27  C   UNL d   1      23.533  40.984   9.016  0.00  0.00     0.017 A 
ATOM     28  C   UNL d   1      23.375  41.071   9.999  0.00  0.00     0.037 A 
ATOM     29  C   UNL d   1      22.925  41.887  10.363  0.00  0.00     0.065 A 
ATOM     30  C   UNL d   1      22.634  42.616   9.743  0.00  0.00     0.037 A 
ATOM     31  C   UNL d   1      22.792  42.528   8.760  0.00  0.00     0.017 A 
BRANCH  29  32
ATOM     32  O   UNL d   1      22.767  41.974  11.346  0.00  0.00    -0.361 OA
ATOM     33  H   UNL d   1      23.205  41.796  11.748  0.00  0.00     0.217 HD
ENDBRANCH  29  32
ENDBRANCH   4  26
BRANCH   8  34
ATOM     34  O   UNL d   1      23.274  40.756   3.879  0.00  0.00    -0.360 OA
ATOM     35  H   UNL d   1      23.191  40.866   3.274  0.00  0.00     0.217 HD
ENDBRANCH   8  34
BRANCH  11  36
ATOM     36  O   UNL d   1      26.005  42.997   4.105  0.00  0.00    -0.361 OA
ATOM     37  H   UNL d   1      26.397  42.705   3.723  0.00  0.00     0.217 HD
ENDBRANCH  11  36
TORSDOF 9
ENDMDL
