MODEL 1
REMARK VINA RESULT:    -6.150      0.000      0.000
REMARK INTER + INTRA:          -6.891
REMARK INTER:                  -7.774
REMARK INTRA:                   0.883
REMARK UNBOUND:                 0.877
REMARK  6 active torsions:
REMARK  status: ('A' for Active; 'I' for Inactive)
REMARK    1  A    between atoms: O_1  and  C_12 
REMARK    2  A    between atoms: O_1  and  C_13 
REMARK    3  A    between atoms: O_2  and  C_9 
REMARK    4  A    between atoms: O_3  and  C_10 
REMARK    5  A    between atoms: O_4  and  C_11 
REMARK    6  A    between atoms: C_6  and  C_12 
ROOT
ATOM      1  C   UNL d   1      24.072  41.381  10.436  0.00  0.00     0.044 A 
ATOM      2  C   UNL d   1      25.042  41.541  10.250  0.00  0.00     0.057 A 
ATOM      3  C   UNL d   1      23.790  40.976  11.306  0.00  0.00     0.057 A 
ATOM      4  C   UNL d   1      24.478  40.731  11.990  0.00  0.00     0.102 A 
ATOM      5  C   UNL d   1      25.729  41.296  10.934  0.00  0.00     0.102 A 
ATOM      6  C   UNL d   1      25.447  40.891  11.804  0.00  0.00     0.132 A 
ENDROOT
BRANCH   1   7
ATOM      7  C   UNL d   1      23.385  41.626   9.753  0.00  0.00     0.293 C 
ATOM      8  O   UNL d   1      23.137  42.585   9.613  0.00  0.00    -0.259 OA
BRANCH   7   9
ATOM      9  O   UNL d   1      22.945  40.912   9.208  0.00  0.00    -0.318 OA
BRANCH   9  10
ATOM     10  C   UNL d   1      22.217  41.150   8.565  0.00  0.00     0.174 C 
ATOM     11  C   UNL d   1      21.763  40.434   8.035  0.00  0.00     0.034 C 
ENDBRANCH   9  10
ENDBRANCH   7   9
ENDBRANCH   1   7
BRANCH   5  12
ATOM     12  O   UNL d   1      26.698  41.456  10.748  0.00  0.00    -0.358 OA
ATOM     13  H   UNL d   1      26.934  41.320  10.191  0.00  0.00     0.217 HD
ENDBRANCH   5  12
BRANCH   4  14
ATOM     14  O   UNL d   1      24.196  40.326  12.860  0.00  0.00    -0.358 OA
ATOM     15  H   UNL d   1      24.590  40.314  13.338  0.00  0.00     0.217 HD
ENDBRANCH   4  14
BRANCH   6  16
ATOM     16  O   UNL d   1      26.134  40.646  12.488  0.00  0.00    -0.356 OA
ATOM     17  H   UNL d   1      25.998  40.234  12.930  0.00  0.00     0.218 HD
ENDBRANCH   6  16
TORSDOF 6
ENDMDL
MODEL 2
REMARK VINA RESULT:    -5.370     25.804     26.918
REMARK INTER + INTRA:          -5.905
REMARK INTER:                  -6.808
REMARK INTRA:                   0.903
REMARK UNBOUND:                 0.877
REMARK  6 active torsions:
REMARK  status: ('A' for Active; 'I' for Inactive)
REMARK    1  A    between atoms: O_1  and  C_12 
REMARK    2  A    between atoms: O_1  and  C_13 
REMARK    3  A    between atoms: O_2  and  C_9 
REMARK    4  A    between atoms: O_3  and  C_10 
REMARK    5  A    between atoms: O_4  and  C_11 
REMARK    6  A    between atoms: C_6  and  C_12 
ROOT
ATOM      1  C   UNL d   1      27.944  25.031  31.479  0.00  0.00     0.044 A 
ATOM      2  C   UNL d   1      27.647  24.919  30.531  0.00  0.00     0.057 A 
ATOM      3  C   UNL d   1      27.365  24.705  32.226  0.00  0.00     0.057 A 
ATOM      4  C   UNL d   1      26.489  24.266  32.025  0.00  0.00     0.102 A 
ATOM      5  C   UNL d   1      26.771  24.481  30.330  0.00  0.00     0.102 A 
ATOM      6  C   UNL d   1      26.192  24.154  31.077  0.00  0.00     0.132 A 
ENDROOT
BRANCH   1   7
ATOM      7  C   UNL d   1      28.820  25.470  31.681  0.00  0.00     0.293 C 
ATOM      8  O   UNL d   1      28.839  26.385  32.085  0.00  0.00    -0.259 OA
BRANCH   7   9
ATOM      9  O   UNL d   1      29.675  24.994  31.478  0.00  0.00    -0.318 OA
BRANCH   9  10
ATOM     10  C   UNL d   1      30.551  25.444  31.654  0.00  0.00     0.174 C 
ATOM     11  C   UNL d   1      31.400  25.031  31.324  0.00  0.00     0.034 C 
ENDBRANCH   9  10
ENDBRANCH   7   9
ENDBRANCH   1   7
BRANCH   5  12
ATOM     12  O   UNL d   1      26.474  24.369  29.382  0.00  0.00    -0.358 OA
ATOM     13  H   UNL d   1      25.875  24.429  29.235  0.00  0.00     0.217 HD
ENDBRANCH   5  12
BRANCH   4  14
ATOM     14  O   UNL d   1      25.910  23.939  32.772  0.00  0.00    -0.358 OA
ATOM     15  H   UNL d   1      25.330  24.151  32.831  0.00  0.00     0.217 HD
ENDBRANCH   4  14
BRANCH   6  16
ATOM     16  O   UNL d   1      25.316  23.715  30.876  0.00  0.00    -0.356 OA
ATOM     17  H   UNL d   1      25.040  23.363  31.305  0.00  0.00     0.218 HD
ENDBRANCH   6  16
TORSDOF 6
ENDMDL
MODEL 3
REMARK VINA RESULT:    -5.292     34.841     36.367
REMARK INTER + INTRA:          -5.807
REMARK INTER:                  -6.821
REMARK INTRA:                   1.014
REMARK UNBOUND:                 0.877
REMARK  6 active torsions:
REMARK  status: ('A' for Active; 'I' for Inactive)
REMARK    1  A    between atoms: O_1  and  C_12 
REMARK    2  A    between atoms: O_1  and  C_13 
REMARK    3  A    between atoms: O_2  and  C_9 
REMARK    4  A    between atoms: O_3  and  C_10 
REMARK    5  A    between atoms: O_4  and  C_11 
REMARK    6  A    between atoms: C_6  and  C_12 
ROOT
ATOM      1  C   UNL d   1      12.636  27.518  41.767  0.00  0.00     0.044 A 
ATOM      2  C   UNL d   1      12.507  27.117  42.674  0.00  0.00     0.057 A 
ATOM      3  C   UNL d   1      11.962  28.162  41.405  0.00  0.00     0.057 A 
ATOM      4  C   UNL d   1      11.159  28.404  41.949  0.00  0.00     0.102 A 
ATOM      5  C   UNL d   1      11.704  27.359  43.219  0.00  0.00     0.102 A 
ATOM      6  C   UNL d   1      11.030  28.003  42.856  0.00  0.00     0.132 A 
ENDROOT
BRANCH   1   7
ATOM      7  C   UNL d   1      13.439  27.276  41.223  0.00  0.00     0.293 C 
ATOM      8  O   UNL d   1      13.948  27.987  40.737  0.00  0.00    -0.259 OA
BRANCH   7   9
ATOM      9  O   UNL d   1      13.734  26.322  41.164  0.00  0.00    -0.318 OA
BRANCH   9  10
ATOM     10  C   UNL d   1      14.495  26.070  40.566  0.00  0.00     0.174 C 
ATOM     11  C   UNL d   1      14.811  25.122  40.532  0.00  0.00     0.034 C 
ENDBRANCH   9  10
ENDBRANCH   7   9
ENDBRANCH   1   7
BRANCH   5  12
ATOM     12  O   UNL d   1      11.575  26.958  44.125  0.00  0.00    -0.358 OA
ATOM     13  H   UNL d   1      11.915  27.158  44.604  0.00  0.00     0.217 HD
ENDBRANCH   5  12
BRANCH   4  14
ATOM     14  O   UNL d   1      10.485  29.048  41.587  0.00  0.00    -0.358 OA
ATOM     15  H   UNL d   1      10.664  29.610  41.397  0.00  0.00     0.217 HD
ENDBRANCH   4  14
BRANCH   6  16
ATOM     16  O   UNL d   1      10.227  28.245  43.400  0.00  0.00    -0.356 OA
ATOM     17  H   UNL d   1       9.844  28.692  43.206  0.00  0.00     0.218 HD
ENDBRANCH   6  16
TORSDOF 6
ENDMDL
MODEL 4
REMARK VINA RESULT:    -5.285     19.031     20.388
REMARK INTER + INTRA:          -5.798
REMARK INTER:                  -6.683
REMARK INTRA:                   0.884
REMARK UNBOUND:                 0.877
REMARK  6 active torsions:
REMARK  status: ('A' for Active; 'I' for Inactive)
REMARK    1  A    between atoms: O_1  and  C_12 
REMARK    2  A    between atoms: O_1  and  C_13 
REMARK    3  A    between atoms: O_2  and  C_9 
REMARK    4  A    between atoms: O_3  and  C_10 
REMARK    5  A    between atoms: O_4  and  C_11 
REMARK    6  A    between atoms: C_6  and  C_12 
ROOT
ATOM      1  C   UNL d   1      10.964  26.521  13.432  0.00  0.00     0.044 A 
ATOM      2  C   UNL d   1      11.568  25.822  13.813  0.00  0.00     0.057 A 
ATOM      3  C   UNL d   1       9.980  26.353  13.371  0.00  0.00     0.057 A 
ATOM      4  C   UNL d   1       9.601  25.485  13.691  0.00  0.00     0.102 A 
ATOM      5  C   UNL d   1      11.189  24.954  14.133  0.00  0.00     0.102 A 
ATOM      6  C   UNL d   1      10.205  24.785  14.072  0.00  0.00     0.132 A 
ENDROOT
BRANCH   1   7
ATOM      7  C   UNL d   1      11.344  27.389  13.112  0.00  0.00     0.293 C 
ATOM      8  O   UNL d   1      11.850  27.426  12.250  0.00  0.00    -0.259 OA
BRANCH   7   9
ATOM      9  O   UNL d   1      11.217  28.220  13.653  0.00  0.00    -0.318 OA
BRANCH   9  10
ATOM     10  C   UNL d   1      11.542  29.099  13.304  0.00  0.00     0.174 C 
ATOM     11  C   UNL d   1      11.356  29.940  13.812  0.00  0.00     0.034 C 
ENDBRANCH   9  10
ENDBRANCH   7   9
ENDBRANCH   1   7
BRANCH   5  12
ATOM     12  O   UNL d   1      11.793  24.254  14.515  0.00  0.00    -0.358 OA
ATOM     13  H   UNL d   1      12.398  24.258  14.377  0.00  0.00     0.217 HD
ENDBRANCH   5  12
BRANCH   4  14
ATOM     14  O   UNL d   1       8.617  25.316  13.630  0.00  0.00    -0.358 OA
ATOM     15  H   UNL d   1       8.381  24.781  13.836  0.00  0.00     0.217 HD
ENDBRANCH   4  14
BRANCH   6  16
ATOM     16  O   UNL d   1       9.825  23.917  14.392  0.00  0.00    -0.356 OA
ATOM     17  H   UNL d   1      10.200  23.483  14.628  0.00  0.00     0.218 HD
ENDBRANCH   6  16
TORSDOF 6
ENDMDL
MODEL 5
REMARK VINA RESULT:    -5.272     31.487     32.728
REMARK INTER + INTRA:          -5.781
REMARK INTER:                  -6.685
REMARK INTRA:                   0.904
REMARK UNBOUND:                 0.877
REMARK  6 active torsions:
REMARK  status: ('A' for Active; 'I' for Inactive)
REMARK    1  A    between atoms: O_1  and  C_12 
REMARK    2  A    between atoms: O_1  and  C_13 
REMARK    3  A    between atoms: O_2  and  C_9 
REMARK    4  A    between atoms: O_3  and  C_10 
REMARK    5  A    between atoms: O_4  and  C_11 
REMARK    6  A    between atoms: C_6  and  C_12 
ROOT
ATOM      1  C   UNL d   1       0.989  31.734  30.838  0.00  0.00     0.044 A 
ATOM      2  C   UNL d   1       1.110  30.765  31.053  0.00  0.00     0.057 A 
ATOM      3  C   UNL d   1       0.077  32.091  30.636  0.00  0.00     0.057 A 
ATOM      4  C   UNL d   1      -0.714  31.480  30.650  0.00  0.00     0.102 A 
ATOM      5  C   UNL d   1       0.319  30.153  31.067  0.00  0.00     0.102 A 
ATOM      6  C   UNL d   1      -0.593  30.511  30.865  0.00  0.00     0.132 A 
ENDROOT
BRANCH   1   7
ATOM      7  C   UNL d   1       1.780  32.345  30.824  0.00  0.00     0.293 C 
ATOM      8  O   UNL d   1       2.071  32.767  29.965  0.00  0.00    -0.259 OA
BRANCH   7   9
ATOM      9  O   UNL d   1       2.281  32.534  31.669  0.00  0.00    -0.318 OA
BRANCH   9  10
ATOM     10  C   UNL d   1       2.982  33.247  31.686  0.00  0.00     0.174 C 
ATOM     11  C   UNL d   1       3.471  33.447  32.534  0.00  0.00     0.034 C 
ENDBRANCH   9  10
ENDBRANCH   7   9
ENDBRANCH   1   7
BRANCH   5  12
ATOM     12  O   UNL d   1       0.439  29.184  31.282  0.00  0.00    -0.358 OA
ATOM     13  H   UNL d   1      -0.002  28.775  31.130  0.00  0.00     0.217 HD
ENDBRANCH   5  12
BRANCH   4  14
ATOM     14  O   UNL d   1      -1.626  31.838  30.448  0.00  0.00    -0.358 OA
ATOM     15  H   UNL d   1      -2.105  31.687  30.811  0.00  0.00     0.217 HD
ENDBRANCH   4  14
BRANCH   6  16
ATOM     16  O   UNL d   1      -1.384  29.899  30.879  0.00  0.00    -0.356 OA
ATOM     17  H   UNL d   1      -1.426  29.437  30.468  0.00  0.00     0.218 HD
ENDBRANCH   6  16
TORSDOF 6
ENDMDL
