MODEL 1
REMARK VINA RESULT:    -7.754      0.000      0.000
REMARK INTER + INTRA:          -7.462
REMARK INTER:                  -9.287
REMARK INTRA:                   1.825
REMARK UNBOUND:                 1.878
REMARK  5 active torsions:
REMARK  status: ('A' for Active; 'I' for Inactive)
REMARK    1  A    between atoms: O_2  and  C_13 
REMARK    2  A    between atoms: O_3  and  C_19 
REMARK    3  A    between atoms: O_5  and  C_17 
REMARK    4  A    between atoms: O_6  and  C_21 
REMARK    5  A    between atoms: C_8  and  C_10 
ROOT
ATOM      1  O   UNL d   1       7.815   3.307  12.827  0.00  0.00    -0.309 OA
ATOM      2  O   UNL d   1       9.621   2.430  15.056  0.00  0.00    -0.287 OA
ATOM      3  C   UNL d   1       9.408   3.107  13.476  0.00  0.00     0.081 A 
ATOM      4  C   UNL d   1       7.425   2.922  13.664  0.00  0.00     0.090 A 
ATOM      5  C   UNL d   1       8.806   3.400  12.733  0.00  0.00     0.095 A 
ATOM      6  C   UNL d   1       9.019   2.722  14.313  0.00  0.00     0.190 A 
ATOM      7  C   UNL d   1       8.027   2.630  14.407  0.00  0.00     0.094 A 
ATOM      8  C   UNL d   1      10.442   3.197  13.393  0.00  0.00     0.085 A 
ATOM      9  C   UNL d   1       9.196   3.802  11.856  0.00  0.00     0.075 A 
ATOM     10  C   UNL d   1      10.228   3.902  11.751  0.00  0.00     0.071 A 
ATOM     11  C   UNL d   1      10.855   3.597  12.524  0.00  0.00     0.074 A 
ENDROOT
BRANCH   4  12
ATOM     12  C   UNL d   1       6.434   2.830  13.758  0.00  0.00     0.001 A 
ATOM     13  C   UNL d   1       5.990   1.961  13.540  0.00  0.00     0.054 A 
ATOM     14  C   UNL d   1       4.999   1.868  13.634  0.00  0.00     0.102 A 
ATOM     15  C   UNL d   1       4.452   2.645  13.946  0.00  0.00     0.099 A 
ATOM     16  C   UNL d   1       4.896   3.514  14.164  0.00  0.00     0.040 A 
ATOM     17  C   UNL d   1       5.887   3.606  14.070  0.00  0.00     0.017 A 
BRANCH  14  18
ATOM     18  O   UNL d   1       4.555   0.999  13.416  0.00  0.00    -0.353 OA
ATOM     19  C   UNL d   1       5.108   0.181  13.255  0.00  0.00     0.210 C 
ENDBRANCH  14  18
BRANCH  15  20
ATOM     20  O   UNL d   1       3.460   2.552  14.040  0.00  0.00    -0.358 OA
ATOM     21  H   UNL d   1       3.223   2.115  14.411  0.00  0.00     0.217 HD
ENDBRANCH  15  20
ENDBRANCH   4  12
BRANCH   8  22
ATOM     22  O   UNL d   1      11.034   2.902  14.142  0.00  0.00    -0.360 OA
ATOM     23  H   UNL d   1      11.590   2.657  14.019  0.00  0.00     0.217 HD
ENDBRANCH   8  22
BRANCH  10  24
ATOM     24  O   UNL d   1      10.613   4.287  10.912  0.00  0.00    -0.361 OA
ATOM     25  H   UNL d   1      10.498   4.877  10.761  0.00  0.00     0.217 HD
ENDBRANCH  10  24
TORSDOF 5
ENDMDL
MODEL 2
REMARK VINA RESULT:    -7.730      1.021      5.208
REMARK INTER + INTRA:          -7.433
REMARK INTER:                  -9.279
REMARK INTRA:                   1.846
REMARK UNBOUND:                 1.878
REMARK  5 active torsions:
REMARK  status: ('A' for Active; 'I' for Inactive)
REMARK    1  A    between atoms: O_2  and  C_13 
REMARK    2  A    between atoms: O_3  and  C_19 
REMARK    3  A    between atoms: O_5  and  C_17 
REMARK    4  A    between atoms: O_6  and  C_21 
REMARK    5  A    between atoms: C_8  and  C_10 
ROOT
ATOM      1  O   UNL d   1       7.053   1.939  13.309  0.00  0.00    -0.309 OA
ATOM      2  O   UNL d   1       5.304   4.225  14.154  0.00  0.00    -0.287 OA
ATOM      3  C   UNL d   1       5.492   2.553  13.742  0.00  0.00     0.081 A 
ATOM      4  C   UNL d   1       7.447   2.848  13.439  0.00  0.00     0.090 A 
ATOM      5  C   UNL d   1       6.075   1.791  13.461  0.00  0.00     0.095 A 
ATOM      6  C   UNL d   1       5.887   3.463  13.872  0.00  0.00     0.190 A 
ATOM      7  C   UNL d   1       6.864   3.610  13.720  0.00  0.00     0.094 A 
ATOM      8  C   UNL d   1       4.473   2.414  13.904  0.00  0.00     0.085 A 
ATOM      9  C   UNL d   1       5.679   0.837  13.321  0.00  0.00     0.075 A 
ATOM     10  C   UNL d   1       4.662   0.676  13.478  0.00  0.00     0.071 A 
ATOM     11  C   UNL d   1       4.055   1.469  13.771  0.00  0.00     0.074 A 
ENDROOT
BRANCH   4  12
ATOM     12  C   UNL d   1       8.424   2.996  13.287  0.00  0.00     0.001 A 
ATOM     13  C   UNL d   1       9.089   2.682  13.965  0.00  0.00     0.054 A 
ATOM     14  C   UNL d   1      10.066   2.830  13.814  0.00  0.00     0.102 A 
ATOM     15  C   UNL d   1      10.379   3.291  12.983  0.00  0.00     0.099 A 
ATOM     16  C   UNL d   1       9.715   3.605  12.305  0.00  0.00     0.040 A 
ATOM     17  C   UNL d   1       8.737   3.457  12.457  0.00  0.00     0.017 A 
BRANCH  14  18
ATOM     18  O   UNL d   1      10.730   2.516  14.492  0.00  0.00    -0.353 OA
ATOM     19  C   UNL d   1      10.415   2.128  15.358  0.00  0.00     0.210 C 
ENDBRANCH  14  18
BRANCH  15  20
ATOM     20  O   UNL d   1      11.356   3.439  12.832  0.00  0.00    -0.358 OA
ATOM     21  H   UNL d   1      11.678   3.045  12.478  0.00  0.00     0.217 HD
ENDBRANCH  15  20
ENDBRANCH   4  12
BRANCH   8  22
ATOM     22  O   UNL d   1       3.900   3.184  14.185  0.00  0.00    -0.360 OA
ATOM     23  H   UNL d   1       4.113   3.594  14.597  0.00  0.00     0.217 HD
ENDBRANCH   8  22
BRANCH  10  24
ATOM     24  O   UNL d   1       4.272  -0.236  13.347  0.00  0.00    -0.361 OA
ATOM     25  H   UNL d   1       3.808  -0.319  12.944  0.00  0.00     0.217 HD
ENDBRANCH  10  24
TORSDOF 5
ENDMDL
MODEL 3
REMARK VINA RESULT:    -7.710      1.007      5.221
REMARK INTER + INTRA:          -7.409
REMARK INTER:                  -9.245
REMARK INTRA:                   1.836
REMARK UNBOUND:                 1.878
REMARK  5 active torsions:
REMARK  status: ('A' for Active; 'I' for Inactive)
REMARK    1  A    between atoms: O_2  and  C_13 
REMARK    2  A    between atoms: O_3  and  C_19 
REMARK    3  A    between atoms: O_5  and  C_17 
REMARK    4  A    between atoms: O_6  and  C_21 
REMARK    5  A    between atoms: C_8  and  C_10 
ROOT
ATOM      1  O   UNL d   1       6.511   2.936  13.735  0.00  0.00    -0.309 OA
ATOM      2  O   UNL d   1       5.850   0.084  13.081  0.00  0.00    -0.287 OA
ATOM      3  C   UNL d   1       5.347   1.662  13.587  0.00  0.00     0.081 A 
ATOM      4  C   UNL d   1       7.234   2.308  13.446  0.00  0.00     0.090 A 
ATOM      5  C   UNL d   1       5.567   2.613  13.805  0.00  0.00     0.095 A 
ATOM      6  C   UNL d   1       6.070   1.034  13.299  0.00  0.00     0.190 A 
ATOM      7  C   UNL d   1       7.014   1.358  13.228  0.00  0.00     0.094 A 
ATOM      8  C   UNL d   1       4.369   1.311  13.656  0.00  0.00     0.085 A 
ATOM      9  C   UNL d   1       4.825   3.278  14.107  0.00  0.00     0.075 A 
ATOM     10  C   UNL d   1       3.840   2.949  14.182  0.00  0.00     0.071 A 
ATOM     11  C   UNL d   1       3.610   1.959  13.955  0.00  0.00     0.074 A 
ENDROOT
BRANCH   4  12
ATOM     12  C   UNL d   1       8.178   2.632  13.376  0.00  0.00     0.001 A 
ATOM     13  C   UNL d   1       8.832   2.428  14.105  0.00  0.00     0.054 A 
ATOM     14  C   UNL d   1       9.775   2.751  14.034  0.00  0.00     0.102 A 
ATOM     15  C   UNL d   1      10.065   3.278  13.235  0.00  0.00     0.099 A 
ATOM     16  C   UNL d   1       9.411   3.481  12.506  0.00  0.00     0.040 A 
ATOM     17  C   UNL d   1       8.468   3.158  12.577  0.00  0.00     0.017 A 
BRANCH  14  18
ATOM     18  O   UNL d   1      10.429   2.548  14.763  0.00  0.00    -0.353 OA
ATOM     19  C   UNL d   1      10.126   2.073  15.589  0.00  0.00     0.210 C 
ENDBRANCH  14  18
BRANCH  15  20
ATOM     20  O   UNL d   1      11.009   3.601  13.165  0.00  0.00    -0.358 OA
ATOM     21  H   UNL d   1      11.308   3.569  12.623  0.00  0.00     0.217 HD
ENDBRANCH  15  20
ENDBRANCH   4  12
BRANCH   8  22
ATOM     22  O   UNL d   1       4.160   0.358  13.435  0.00  0.00    -0.360 OA
ATOM     23  H   UNL d   1       3.571   0.169  13.410  0.00  0.00     0.217 HD
ENDBRANCH   8  22
BRANCH  10  24
ATOM     24  O   UNL d   1       3.119   3.580  14.471  0.00  0.00    -0.361 OA
ATOM     25  H   UNL d   1       2.587   3.608  14.155  0.00  0.00     0.217 HD
ENDBRANCH  10  24
TORSDOF 5
ENDMDL
MODEL 4
REMARK VINA RESULT:    -7.163      0.982      2.069
REMARK INTER + INTRA:          -6.751
REMARK INTER:                  -8.589
REMARK INTRA:                   1.839
REMARK UNBOUND:                 1.878
REMARK  5 active torsions:
REMARK  status: ('A' for Active; 'I' for Inactive)
REMARK    1  A    between atoms: O_2  and  C_13 
REMARK    2  A    between atoms: O_3  and  C_19 
REMARK    3  A    between atoms: O_5  and  C_17 
REMARK    4  A    between atoms: O_6  and  C_21 
REMARK    5  A    between atoms: C_8  and  C_10 
ROOT
ATOM      1  O   UNL d   1       7.878   2.471  14.612  0.00  0.00    -0.309 OA
ATOM      2  O   UNL d   1       9.257   3.622  12.209  0.00  0.00    -0.287 OA
ATOM      3  C   UNL d   1       9.337   2.878  13.771  0.00  0.00     0.081 A 
ATOM      4  C   UNL d   1       7.339   2.831  13.850  0.00  0.00     0.090 A 
ATOM      5  C   UNL d   1       8.877   2.495  14.572  0.00  0.00     0.095 A 
ATOM      6  C   UNL d   1       8.798   3.238  13.010  0.00  0.00     0.190 A 
ATOM      7  C   UNL d   1       7.799   3.215  13.050  0.00  0.00     0.094 A 
ATOM      8  C   UNL d   1      10.376   2.910  13.716  0.00  0.00     0.085 A 
ATOM      9  C   UNL d   1       9.425   2.116  15.373  0.00  0.00     0.075 A 
ATOM     10  C   UNL d   1      10.466   2.137  15.339  0.00  0.00     0.071 A 
ATOM     11  C   UNL d   1      10.945   2.536  14.505  0.00  0.00     0.074 A 
ENDROOT
BRANCH   4  12
ATOM     12  C   UNL d   1       6.340   2.807  13.890  0.00  0.00     0.001 A 
ATOM     13  C   UNL d   1       5.851   1.961  13.678  0.00  0.00     0.054 A 
ATOM     14  C   UNL d   1       4.852   1.938  13.718  0.00  0.00     0.102 A 
ATOM     15  C   UNL d   1       4.342   2.760  13.969  0.00  0.00     0.099 A 
ATOM     16  C   UNL d   1       4.831   3.606  14.181  0.00  0.00     0.040 A 
ATOM     17  C   UNL d   1       5.830   3.630  14.142  0.00  0.00     0.017 A 
BRANCH  14  18
ATOM     18  O   UNL d   1       4.363   1.091  13.506  0.00  0.00    -0.353 OA
ATOM     19  C   UNL d   1       4.868   0.234  13.405  0.00  0.00     0.210 C 
ENDBRANCH  14  18
BRANCH  15  20
ATOM     20  O   UNL d   1       3.343   2.737  14.009  0.00  0.00    -0.358 OA
ATOM     21  H   UNL d   1       3.027   2.365  13.626  0.00  0.00     0.217 HD
ENDBRANCH  15  20
ENDBRANCH   4  12
BRANCH   8  22
ATOM     22  O   UNL d   1      10.825   3.296  12.910  0.00  0.00    -0.360 OA
ATOM     23  H   UNL d   1      10.636   3.839  12.681  0.00  0.00     0.217 HD
ENDBRANCH   8  22
BRANCH  10  24
ATOM     24  O   UNL d   1      11.002   1.776  16.103  0.00  0.00    -0.361 OA
ATOM     25  H   UNL d   1      10.955   2.035  16.664  0.00  0.00     0.217 HD
ENDBRANCH  10  24
TORSDOF 5
ENDMDL
MODEL 5
REMARK VINA RESULT:    -7.088      1.494      4.685
REMARK INTER + INTRA:          -6.660
REMARK INTER:                  -8.488
REMARK INTRA:                   1.828
REMARK UNBOUND:                 1.878
REMARK  5 active torsions:
REMARK  status: ('A' for Active; 'I' for Inactive)
REMARK    1  A    between atoms: O_2  and  C_13 
REMARK    2  A    between atoms: O_3  and  C_19 
REMARK    3  A    between atoms: O_5  and  C_17 
REMARK    4  A    between atoms: O_6  and  C_21 
REMARK    5  A    between atoms: C_8  and  C_10 
ROOT
ATOM      1  O   UNL d   1       7.493   3.257  13.076  0.00  0.00    -0.309 OA
ATOM      2  O   UNL d   1       8.580   2.284  15.697  0.00  0.00    -0.287 OA
ATOM      3  C   UNL d   1       7.252   2.853  14.743  0.00  0.00     0.081 A 
ATOM      4  C   UNL d   1       8.459   3.012  13.156  0.00  0.00     0.090 A 
ATOM      5  C   UNL d   1       6.889   3.177  13.869  0.00  0.00     0.095 A 
ATOM      6  C   UNL d   1       8.218   2.608  14.823  0.00  0.00     0.190 A 
ATOM      7  C   UNL d   1       8.822   2.688  14.030  0.00  0.00     0.094 A 
ATOM      8  C   UNL d   1       6.635   2.765  15.577  0.00  0.00     0.085 A 
ATOM      9  C   UNL d   1       5.885   3.436  13.769  0.00  0.00     0.075 A 
ATOM     10  C   UNL d   1       5.250   3.355  14.591  0.00  0.00     0.071 A 
ATOM     11  C   UNL d   1       5.627   3.018  15.501  0.00  0.00     0.074 A 
ENDROOT
BRANCH   4  12
ATOM     12  C   UNL d   1       9.063   3.092  12.363  0.00  0.00     0.001 A 
ATOM     13  C   UNL d   1       9.183   2.314  11.746  0.00  0.00     0.054 A 
ATOM     14  C   UNL d   1       9.786   2.394  10.953  0.00  0.00     0.102 A 
ATOM     15  C   UNL d   1      10.270   3.251  10.777  0.00  0.00     0.099 A 
ATOM     16  C   UNL d   1      10.150   4.029  11.394  0.00  0.00     0.040 A 
ATOM     17  C   UNL d   1       9.547   3.949  12.187  0.00  0.00     0.017 A 
BRANCH  14  18
ATOM     18  O   UNL d   1       9.906   1.616  10.336  0.00  0.00    -0.353 OA
ATOM     19  C   UNL d   1       9.627   0.701  10.625  0.00  0.00     0.210 C 
ENDBRANCH  14  18
BRANCH  15  20
ATOM     20  O   UNL d   1      10.874   3.331   9.984  0.00  0.00    -0.358 OA
ATOM     21  H   UNL d   1      11.451   3.104  10.009  0.00  0.00     0.217 HD
ENDBRANCH  15  20
ENDBRANCH   4  12
BRANCH   8  22
ATOM     22  O   UNL d   1       7.008   2.439  16.446  0.00  0.00    -0.360 OA
ATOM     23  H   UNL d   1       7.089   1.832  16.540  0.00  0.00     0.217 HD
ENDBRANCH   8  22
BRANCH  10  24
ATOM     24  O   UNL d   1       4.284   3.601  14.506  0.00  0.00    -0.361 OA
ATOM     25  H   UNL d   1       4.125   4.169  14.315  0.00  0.00     0.217 HD
ENDBRANCH  10  24
TORSDOF 5
ENDMDL
