MODEL 1
REMARK VINA RESULT:    -8.232      0.000      0.000
REMARK INTER + INTRA:          -5.390
REMARK INTER:                 -10.727
REMARK INTRA:                   5.337
REMARK UNBOUND:                 5.248
REMARK  6 active torsions:
REMARK  status: ('A' for Active; 'I' for Inactive)
REMARK    1  A    between atoms: O_2  and  C_15 
REMARK    2  A    between atoms: O_3  and  C_17 
REMARK    3  A    between atoms: O_4  and  C_11 
REMARK    4  A    between atoms: O_6  and  C_22 
REMARK    5  A    between atoms: O_7  and  C_20 
REMARK    6  A    between atoms: C_10  and  C_13 
ROOT
ATOM      1  O   UNL d   1       7.660  26.074   3.150  0.00  0.00    -0.309 OA
ATOM      2  O   UNL d   1       4.813  25.190   2.419  0.00  0.00    -0.287 OA
ATOM      3  C   UNL d   1       5.914  26.401   3.091  0.00  0.00     0.084 A 
ATOM      4  C   UNL d   1       6.840  26.692   3.330  0.00  0.00     0.096 A 
ATOM      5  C   UNL d   1       7.512  25.140   2.714  0.00  0.00     0.090 A 
ATOM      6  C   UNL d   1       5.138  27.005   3.270  0.00  0.00     0.119 A 
ATOM      7  C   UNL d   1       5.744  25.471   2.654  0.00  0.00     0.190 A 
ATOM      8  C   UNL d   1       6.990  27.588   3.749  0.00  0.00     0.078 A 
ATOM      9  C   UNL d   1       5.287  27.900   3.689  0.00  0.00     0.136 A 
ATOM     10  C   UNL d   1       6.547  24.836   2.464  0.00  0.00     0.094 A 
ATOM     11  C   UNL d   1       6.214  28.192   3.929  0.00  0.00     0.107 A 
ENDROOT
BRANCH   5  12
ATOM     12  C   UNL d   1       8.290  24.539   2.536  0.00  0.00     0.001 A 
ATOM     13  C   UNL d   1       9.103  24.588   3.116  0.00  0.00     0.053 A 
ATOM     14  C   UNL d   1       9.882  23.987   2.939  0.00  0.00     0.099 A 
ATOM     15  C   UNL d   1       9.848  23.336   2.180  0.00  0.00     0.101 A 
ATOM     16  C   UNL d   1       9.035  23.286   1.600  0.00  0.00     0.040 A 
ATOM     17  C   UNL d   1       8.257  23.887   1.778  0.00  0.00     0.017 A 
BRANCH  14  18
ATOM     18  O   UNL d   1      10.695  24.036   3.519  0.00  0.00    -0.358 OA
ATOM     19  H   UNL d   1      11.256  24.102   3.263  0.00  0.00     0.217 HD
ENDBRANCH  14  18
BRANCH  15  20
ATOM     20  O   UNL d   1      10.627  22.734   2.002  0.00  0.00    -0.353 OA
ATOM     21  C   UNL d   1      10.613  22.118   1.216  0.00  0.00     0.210 C 
ENDBRANCH  15  20
ENDBRANCH   5  12
BRANCH   6  22
ATOM     22  O   UNL d   1       4.212  26.713   3.031  0.00  0.00    -0.357 OA
ATOM     23  H   UNL d   1       4.113  26.140   2.816  0.00  0.00     0.218 HD
ENDBRANCH   6  22
BRANCH  11  24
ATOM     24  O   UNL d   1       6.363  29.088   4.347  0.00  0.00    -0.353 OA
ATOM     25  C   UNL d   1       7.276  29.345   4.664  0.00  0.00     0.210 C 
ENDBRANCH  11  24
BRANCH   9  26
ATOM     26  O   UNL d   1       4.511  28.504   3.868  0.00  0.00    -0.351 OA
ATOM     27  C   UNL d   1       4.113  29.041   3.125  0.00  0.00     0.210 C 
ENDBRANCH   9  26
TORSDOF 6
ENDMDL
MODEL 2
REMARK VINA RESULT:    -7.989     20.918     22.342
REMARK INTER + INTRA:          -5.076
REMARK INTER:                 -10.209
REMARK INTRA:                   5.133
REMARK UNBOUND:                 5.248
REMARK  6 active torsions:
REMARK  status: ('A' for Active; 'I' for Inactive)
REMARK    1  A    between atoms: O_2  and  C_15 
REMARK    2  A    between atoms: O_3  and  C_17 
REMARK    3  A    between atoms: O_4  and  C_11 
REMARK    4  A    between atoms: O_6  and  C_22 
REMARK    5  A    between atoms: O_7  and  C_20 
REMARK    6  A    between atoms: C_10  and  C_13 
ROOT
ATOM      1  O   UNL d   1      17.497   9.830  15.233  0.00  0.00    -0.309 OA
ATOM      2  O   UNL d   1      14.691  10.844  14.513  0.00  0.00    -0.287 OA
ATOM      3  C   UNL d   1      15.802  10.115  15.682  0.00  0.00     0.084 A 
ATOM      4  C   UNL d   1      16.715   9.784  15.920  0.00  0.00     0.096 A 
ATOM      5  C   UNL d   1      17.325  10.227  14.286  0.00  0.00     0.090 A 
ATOM      6  C   UNL d   1      15.061  10.064  16.352  0.00  0.00     0.119 A 
ATOM      7  C   UNL d   1      15.608  10.516  14.741  0.00  0.00     0.190 A 
ATOM      8  C   UNL d   1      16.887   9.402  16.828  0.00  0.00     0.078 A 
ATOM      9  C   UNL d   1      15.233   9.682  17.260  0.00  0.00     0.136 A 
ATOM     10  C   UNL d   1      16.374  10.572  14.037  0.00  0.00     0.094 A 
ATOM     11  C   UNL d   1      16.147   9.351  17.498  0.00  0.00     0.107 A 
ENDROOT
BRANCH   5  12
ATOM     12  C   UNL d   1      18.068  10.277  13.618  0.00  0.00     0.001 A 
ATOM     13  C   UNL d   1      18.356  11.163  13.256  0.00  0.00     0.053 A 
ATOM     14  C   UNL d   1      19.099  11.214  12.588  0.00  0.00     0.099 A 
ATOM     15  C   UNL d   1      19.554  10.377  12.284  0.00  0.00     0.101 A 
ATOM     16  C   UNL d   1      19.266   9.490  12.646  0.00  0.00     0.040 A 
ATOM     17  C   UNL d   1      18.523   9.441  13.313  0.00  0.00     0.017 A 
BRANCH  14  18
ATOM     18  O   UNL d   1      19.388  12.100  12.225  0.00  0.00    -0.358 OA
ATOM     19  H   UNL d   1      19.470  12.580  12.608  0.00  0.00     0.217 HD
ENDBRANCH  14  18
BRANCH  15  20
ATOM     20  O   UNL d   1      20.297  10.426  11.616  0.00  0.00    -0.353 OA
ATOM     21  C   UNL d   1      20.918   9.651  11.501  0.00  0.00     0.210 C 
ENDBRANCH  15  20
ENDBRANCH   5  12
BRANCH   6  22
ATOM     22  O   UNL d   1      14.148  10.395  16.114  0.00  0.00    -0.357 OA
ATOM     23  H   UNL d   1      13.652  10.039  16.220  0.00  0.00     0.218 HD
ENDBRANCH   6  22
BRANCH  11  24
ATOM     24  O   UNL d   1      16.319   8.969  18.406  0.00  0.00    -0.353 OA
ATOM     25  C   UNL d   1      17.212   8.574  18.621  0.00  0.00     0.210 C 
ENDBRANCH  11  24
BRANCH   9  26
ATOM     26  O   UNL d   1      14.493   9.631  17.929  0.00  0.00    -0.351 OA
ATOM     27  C   UNL d   1      13.869   8.850  17.926  0.00  0.00     0.210 C 
ENDBRANCH   9  26
TORSDOF 6
ENDMDL
MODEL 3
REMARK VINA RESULT:    -7.908     24.053     25.569
REMARK INTER + INTRA:          -4.972
REMARK INTER:                 -10.016
REMARK INTRA:                   5.044
REMARK UNBOUND:                 5.248
REMARK  6 active torsions:
REMARK  status: ('A' for Active; 'I' for Inactive)
REMARK    1  A    between atoms: O_2  and  C_15 
REMARK    2  A    between atoms: O_3  and  C_17 
REMARK    3  A    between atoms: O_4  and  C_11 
REMARK    4  A    between atoms: O_6  and  C_22 
REMARK    5  A    between atoms: O_7  and  C_20 
REMARK    6  A    between atoms: C_10  and  C_13 
ROOT
ATOM      1  O   UNL d   1      13.682  33.733  26.493  0.00  0.00    -0.309 OA
ATOM      2  O   UNL d   1      13.285  30.955  25.251  0.00  0.00    -0.287 OA
ATOM      3  C   UNL d   1      13.173  32.038  26.646  0.00  0.00     0.084 A 
ATOM      4  C   UNL d   1      13.301  32.942  27.053  0.00  0.00     0.096 A 
ATOM      5  C   UNL d   1      13.933  33.580  25.493  0.00  0.00     0.090 A 
ATOM      6  C   UNL d   1      12.806  31.289  27.196  0.00  0.00     0.119 A 
ATOM      7  C   UNL d   1      13.417  31.863  25.649  0.00  0.00     0.190 A 
ATOM      8  C   UNL d   1      13.062  33.097  28.012  0.00  0.00     0.078 A 
ATOM      9  C   UNL d   1      12.567  31.443  28.155  0.00  0.00     0.136 A 
ATOM     10  C   UNL d   1      13.800  32.638  25.068  0.00  0.00     0.094 A 
ATOM     11  C   UNL d   1      12.695  32.347  28.563  0.00  0.00     0.107 A 
ENDROOT
BRANCH   5  12
ATOM     12  C   UNL d   1      14.300  34.332  24.945  0.00  0.00     0.001 A 
ATOM     13  C   UNL d   1      13.677  34.965  24.486  0.00  0.00     0.053 A 
ATOM     14  C   UNL d   1      14.043  35.717  23.938  0.00  0.00     0.099 A 
ATOM     15  C   UNL d   1      15.033  35.835  23.849  0.00  0.00     0.101 A 
ATOM     16  C   UNL d   1      15.655  35.202  24.309  0.00  0.00     0.040 A 
ATOM     17  C   UNL d   1      15.289  34.450  24.856  0.00  0.00     0.017 A 
BRANCH  14  18
ATOM     18  O   UNL d   1      13.422  36.352  23.478  0.00  0.00    -0.358 OA
ATOM     19  H   UNL d   1      13.024  36.691  23.810  0.00  0.00     0.217 HD
ENDBRANCH  14  18
BRANCH  15  20
ATOM     20  O   UNL d   1      15.399  36.587  23.302  0.00  0.00    -0.353 OA
ATOM     21  C   UNL d   1      16.372  36.814  23.350  0.00  0.00     0.210 C 
ENDBRANCH  15  20
ENDBRANCH   5  12
BRANCH   6  22
ATOM     22  O   UNL d   1      12.678  30.385  26.788  0.00  0.00    -0.357 OA
ATOM     23  H   UNL d   1      12.927  30.256  26.235  0.00  0.00     0.218 HD
ENDBRANCH   6  22
BRANCH  11  24
ATOM     24  O   UNL d   1      12.457  32.501  29.522  0.00  0.00    -0.353 OA
ATOM     25  C   UNL d   1      12.375  33.434  29.873  0.00  0.00     0.210 C 
ENDBRANCH  11  24
BRANCH   9  26
ATOM     26  O   UNL d   1      12.200  30.693  28.706  0.00  0.00    -0.351 OA
ATOM     27  C   UNL d   1      12.822  30.070  29.180  0.00  0.00     0.210 C 
ENDBRANCH   9  26
TORSDOF 6
ENDMDL
MODEL 4
REMARK VINA RESULT:    -7.803      2.477      6.799
REMARK INTER + INTRA:          -4.836
REMARK INTER:                  -9.844
REMARK INTRA:                   5.008
REMARK UNBOUND:                 5.248
REMARK  6 active torsions:
REMARK  status: ('A' for Active; 'I' for Inactive)
REMARK    1  A    between atoms: O_2  and  C_15 
REMARK    2  A    between atoms: O_3  and  C_17 
REMARK    3  A    between atoms: O_4  and  C_11 
REMARK    4  A    between atoms: O_6  and  C_22 
REMARK    5  A    between atoms: O_7  and  C_20 
REMARK    6  A    between atoms: C_10  and  C_13 
ROOT
ATOM      1  O   UNL d   1       5.255  29.071   2.768  0.00  0.00    -0.309 OA
ATOM      2  O   UNL d   1       7.684  28.415   4.527  0.00  0.00    -0.287 OA
ATOM      3  C   UNL d   1       6.353  27.877   3.493  0.00  0.00     0.084 A 
ATOM      4  C   UNL d   1       5.561  28.086   2.919  0.00  0.00     0.096 A 
ATOM      5  C   UNL d   1       5.782  29.847   3.222  0.00  0.00     0.090 A 
ATOM      6  C   UNL d   1       6.635  26.927   3.628  0.00  0.00     0.119 A 
ATOM      7  C   UNL d   1       6.894  28.637   3.955  0.00  0.00     0.190 A 
ATOM      8  C   UNL d   1       5.051  27.346   2.481  0.00  0.00     0.078 A 
ATOM      9  C   UNL d   1       6.124  26.187   3.190  0.00  0.00     0.136 A 
ATOM     10  C   UNL d   1       6.607  29.629   3.819  0.00  0.00     0.094 A 
ATOM     11  C   UNL d   1       5.333  26.396   2.617  0.00  0.00     0.107 A 
ENDROOT
BRANCH   5  12
ATOM     12  C   UNL d   1       5.498  30.796   3.084  0.00  0.00     0.001 A 
ATOM     13  C   UNL d   1       5.786  31.290   2.263  0.00  0.00     0.053 A 
ATOM     14  C   UNL d   1       5.502  32.239   2.125  0.00  0.00     0.099 A 
ATOM     15  C   UNL d   1       4.929  32.693   2.808  0.00  0.00     0.101 A 
ATOM     16  C   UNL d   1       4.642  32.199   3.628  0.00  0.00     0.040 A 
ATOM     17  C   UNL d   1       4.926  31.251   3.766  0.00  0.00     0.017 A 
BRANCH  14  18
ATOM     18  O   UNL d   1       5.789  32.733   1.305  0.00  0.00    -0.358 OA
ATOM     19  H   UNL d   1       6.384  32.885   1.227  0.00  0.00     0.217 HD
ENDBRANCH  14  18
BRANCH  15  20
ATOM     20  O   UNL d   1       4.645  33.642   2.670  0.00  0.00    -0.353 OA
ATOM     21  C   UNL d   1       4.149  34.125   3.391  0.00  0.00     0.210 C 
ENDBRANCH  15  20
ENDBRANCH   5  12
BRANCH   6  22
ATOM     22  O   UNL d   1       7.426  26.717   4.202  0.00  0.00    -0.357 OA
ATOM     23  H   UNL d   1       7.690  27.164   4.541  0.00  0.00     0.218 HD
ENDBRANCH   6  22
BRANCH  11  24
ATOM     24  O   UNL d   1       4.822  25.656   2.178  0.00  0.00    -0.353 OA
ATOM     25  C   UNL d   1       3.925  25.838   1.775  0.00  0.00     0.210 C 
ENDBRANCH  11  24
BRANCH   9  26
ATOM     26  O   UNL d   1       6.406  25.237   3.326  0.00  0.00    -0.351 OA
ATOM     27  C   UNL d   1       7.178  24.866   2.810  0.00  0.00     0.210 C 
ENDBRANCH   9  26
TORSDOF 6
ENDMDL
MODEL 5
REMARK VINA RESULT:    -7.712     20.745     22.322
REMARK INTER + INTRA:          -4.718
REMARK INTER:                  -9.970
REMARK INTRA:                   5.252
REMARK UNBOUND:                 5.248
REMARK  6 active torsions:
REMARK  status: ('A' for Active; 'I' for Inactive)
REMARK    1  A    between atoms: O_2  and  C_15 
REMARK    2  A    between atoms: O_3  and  C_17 
REMARK    3  A    between atoms: O_4  and  C_11 
REMARK    4  A    between atoms: O_6  and  C_22 
REMARK    5  A    between atoms: O_7  and  C_20 
REMARK    6  A    between atoms: C_10  and  C_13 
ROOT
ATOM      1  O   UNL d   1      27.238  17.359  -1.330  0.00  0.00    -0.309 OA
ATOM      2  O   UNL d   1      27.179  17.967   1.677  0.00  0.00    -0.287 OA
ATOM      3  C   UNL d   1      27.958  18.133   0.097  0.00  0.00     0.084 A 
ATOM      4  C   UNL d   1      27.980  17.937  -0.883  0.00  0.00     0.096 A 
ATOM      5  C   UNL d   1      26.462  16.980  -0.748  0.00  0.00     0.090 A 
ATOM      6  C   UNL d   1      28.677  18.690   0.512  0.00  0.00     0.119 A 
ATOM      7  C   UNL d   1      27.191  17.765   0.698  0.00  0.00     0.190 A 
ATOM      8  C   UNL d   1      28.722  18.297  -1.448  0.00  0.00     0.078 A 
ATOM      9  C   UNL d   1      29.419  19.050  -0.053  0.00  0.00     0.136 A 
ATOM     10  C   UNL d   1      26.438  17.184   0.274  0.00  0.00     0.094 A 
ATOM     11  C   UNL d   1      29.442  18.854  -1.033  0.00  0.00     0.107 A 
ENDROOT
BRANCH   5  12
ATOM     12  C   UNL d   1      25.744  16.423  -1.166  0.00  0.00     0.001 A 
ATOM     13  C   UNL d   1      25.389  15.621  -0.686  0.00  0.00     0.053 A 
ATOM     14  C   UNL d   1      24.671  15.064  -1.103  0.00  0.00     0.099 A 
ATOM     15  C   UNL d   1      24.308  15.310  -2.002  0.00  0.00     0.101 A 
ATOM     16  C   UNL d   1      24.662  16.113  -2.483  0.00  0.00     0.040 A 
ATOM     17  C   UNL d   1      25.380  16.669  -2.064  0.00  0.00     0.017 A 
BRANCH  14  18
ATOM     18  O   UNL d   1      24.316  14.262  -0.624  0.00  0.00    -0.358 OA
ATOM     19  H   UNL d   1      24.467  14.163  -0.031  0.00  0.00     0.217 HD
ENDBRANCH  14  18
BRANCH  15  20
ATOM     20  O   UNL d   1      23.590  14.754  -2.421  0.00  0.00    -0.353 OA
ATOM     21  C   UNL d   1      23.416  14.818  -3.403  0.00  0.00     0.210 C 
ENDBRANCH  15  20
ENDBRANCH   5  12
BRANCH   6  22
ATOM     22  O   UNL d   1      28.655  18.886   1.493  0.00  0.00    -0.357 OA
ATOM     23  H   UNL d   1      29.177  19.039   1.790  0.00  0.00     0.218 HD
ENDBRANCH   6  22
BRANCH  11  24
ATOM     24  O   UNL d   1      30.184  19.214  -1.598  0.00  0.00    -0.353 OA
ATOM     25  C   UNL d   1      30.282  18.912  -2.547  0.00  0.00     0.210 C 
ENDBRANCH  11  24
BRANCH   9  26
ATOM     26  O   UNL d   1      30.139  19.607   0.362  0.00  0.00    -0.351 OA
ATOM     27  C   UNL d   1      29.971  20.572   0.564  0.00  0.00     0.210 C 
ENDBRANCH   9  26
TORSDOF 6
ENDMDL
