MODEL 1
REMARK VINA RESULT:    -8.052      0.000      0.000
REMARK INTER + INTRA:          -7.803
REMARK INTER:                  -9.648
REMARK INTRA:                   1.845
REMARK UNBOUND:                 1.896
REMARK  5 active torsions:
REMARK  status: ('A' for Active; 'I' for Inactive)
REMARK    1  A    between atoms: O_2  and  C_13 
REMARK    2  A    between atoms: O_3  and  C_19 
REMARK    3  A    between atoms: O_5  and  C_17 
REMARK    4  A    between atoms: O_6  and  C_21 
REMARK    5  A    between atoms: C_8  and  C_10 
ROOT
ATOM      1  O   UNL d   1     -13.923  18.306  16.369  0.00  0.00    -0.309 OA
ATOM      2  O   UNL d   1     -12.883  18.393  13.557  0.00  0.00    -0.287 OA
ATOM      3  C   UNL d   1     -12.595  18.260  15.259  0.00  0.00     0.081 A 
ATOM      4  C   UNL d   1     -14.559  18.410  15.604  0.00  0.00     0.090 A 
ATOM      5  C   UNL d   1     -12.941  18.231  16.197  0.00  0.00     0.095 A 
ATOM      6  C   UNL d   1     -13.230  18.364  14.494  0.00  0.00     0.190 A 
ATOM      7  C   UNL d   1     -14.212  18.439  14.667  0.00  0.00     0.094 A 
ATOM      8  C   UNL d   1     -11.575  18.183  15.064  0.00  0.00     0.085 A 
ATOM      9  C   UNL d   1     -12.292  18.123  17.004  0.00  0.00     0.075 A 
ATOM     10  C   UNL d   1     -11.267  18.044  16.832  0.00  0.00     0.071 A 
ATOM     11  C   UNL d   1     -10.906  18.075  15.856  0.00  0.00     0.074 A 
ENDROOT
BRANCH   4  12
ATOM     12  C   UNL d   1     -15.541  18.485  15.777  0.00  0.00     0.001 A 
ATOM     13  C   UNL d   1     -15.995  19.373  15.703  0.00  0.00     0.054 A 
ATOM     14  C   UNL d   1     -16.977  19.448  15.875  0.00  0.00     0.102 A 
ATOM     15  C   UNL d   1     -17.505  18.636  16.122  0.00  0.00     0.099 A 
ATOM     16  C   UNL d   1     -17.051  17.748  16.196  0.00  0.00     0.040 A 
ATOM     17  C   UNL d   1     -16.069  17.673  16.024  0.00  0.00     0.017 A 
BRANCH  14  18
ATOM     18  O   UNL d   1     -17.432  20.336  15.801  0.00  0.00    -0.353 OA
ATOM     19  C   UNL d   1     -16.946  21.115  15.405  0.00  0.00     0.210 C 
ENDBRANCH  14  18
BRANCH  15  20
ATOM     20  O   UNL d   1     -18.487  18.711  16.295  0.00  0.00    -0.358 OA
ATOM     21  H   UNL d   1     -18.692  19.018  16.793  0.00  0.00     0.217 HD
ENDBRANCH  15  20
ENDBRANCH   4  12
BRANCH   8  22
ATOM     22  O   UNL d   1     -11.239  18.214  14.123  0.00  0.00    -0.360 OA
ATOM     23  H   UNL d   1     -11.176  17.689  13.800  0.00  0.00     0.217 HD
ENDBRANCH   8  22
BRANCH  10  24
ATOM     24  O   UNL d   1     -10.635  17.940  17.600  0.00  0.00    -0.361 OA
ATOM     25  H   UNL d   1     -10.083  17.672  17.513  0.00  0.00     0.217 HD
ENDBRANCH  10  24
TORSDOF 5
ENDMDL
MODEL 2
REMARK VINA RESULT:    -8.004     15.253     16.696
REMARK INTER + INTRA:          -7.745
REMARK INTER:                  -9.595
REMARK INTRA:                   1.850
REMARK UNBOUND:                 1.896
REMARK  5 active torsions:
REMARK  status: ('A' for Active; 'I' for Inactive)
REMARK    1  A    between atoms: O_2  and  C_13 
REMARK    2  A    between atoms: O_3  and  C_19 
REMARK    3  A    between atoms: O_5  and  C_17 
REMARK    4  A    between atoms: O_6  and  C_21 
REMARK    5  A    between atoms: C_8  and  C_10 
ROOT
ATOM      1  O   UNL d   1     -20.424  22.366  30.096  0.00  0.00    -0.309 OA
ATOM      2  O   UNL d   1     -17.454  22.731  29.875  0.00  0.00    -0.287 OA
ATOM      3  C   UNL d   1     -19.058  23.142  29.366  0.00  0.00     0.081 A 
ATOM      4  C   UNL d   1     -19.809  21.833  30.679  0.00  0.00     0.090 A 
ATOM      5  C   UNL d   1     -20.048  23.021  29.440  0.00  0.00     0.095 A 
ATOM      6  C   UNL d   1     -18.444  22.610  29.949  0.00  0.00     0.190 A 
ATOM      7  C   UNL d   1     -18.820  21.955  30.605  0.00  0.00     0.094 A 
ATOM      8  C   UNL d   1     -18.653  23.820  28.688  0.00  0.00     0.085 A 
ATOM      9  C   UNL d   1     -20.701  23.568  28.841  0.00  0.00     0.075 A 
ATOM     10  C   UNL d   1     -20.317  24.252  28.155  0.00  0.00     0.071 A 
ATOM     11  C   UNL d   1     -19.286  24.379  28.078  0.00  0.00     0.074 A 
ENDROOT
BRANCH   4  12
ATOM     12  C   UNL d   1     -20.185  21.179  31.335  0.00  0.00     0.001 A 
ATOM     13  C   UNL d   1     -20.249  21.422  32.303  0.00  0.00     0.054 A 
ATOM     14  C   UNL d   1     -20.624  20.767  32.959  0.00  0.00     0.102 A 
ATOM     15  C   UNL d   1     -20.936  19.870  32.647  0.00  0.00     0.099 A 
ATOM     16  C   UNL d   1     -20.873  19.627  31.679  0.00  0.00     0.040 A 
ATOM     17  C   UNL d   1     -20.497  20.281  31.023  0.00  0.00     0.017 A 
BRANCH  14  18
ATOM     18  O   UNL d   1     -20.688  21.010  33.927  0.00  0.00    -0.353 OA
ATOM     19  C   UNL d   1     -20.102  21.728  34.302  0.00  0.00     0.210 C 
ENDBRANCH  14  18
BRANCH  15  20
ATOM     20  O   UNL d   1     -21.312  19.215  33.303  0.00  0.00    -0.358 OA
ATOM     21  H   UNL d   1     -21.076  18.643  33.340  0.00  0.00     0.217 HD
ENDBRANCH  15  20
ENDBRANCH   4  12
BRANCH   8  22
ATOM     22  O   UNL d   1     -17.661  23.934  28.623  0.00  0.00    -0.360 OA
ATOM     23  H   UNL d   1     -17.284  23.512  28.876  0.00  0.00     0.217 HD
ENDBRANCH   8  22
BRANCH  10  24
ATOM     24  O   UNL d   1     -20.934  24.783  27.575  0.00  0.00    -0.361 OA
ATOM     25  H   UNL d   1     -21.070  24.584  27.003  0.00  0.00     0.217 HD
ENDBRANCH  10  24
TORSDOF 5
ENDMDL
MODEL 3
REMARK VINA RESULT:    -7.954     15.141     16.478
REMARK INTER + INTRA:          -7.685
REMARK INTER:                  -9.602
REMARK INTRA:                   1.917
REMARK UNBOUND:                 1.896
REMARK  5 active torsions:
REMARK  status: ('A' for Active; 'I' for Inactive)
REMARK    1  A    between atoms: O_2  and  C_13 
REMARK    2  A    between atoms: O_3  and  C_19 
REMARK    3  A    between atoms: O_5  and  C_17 
REMARK    4  A    between atoms: O_6  and  C_21 
REMARK    5  A    between atoms: C_8  and  C_10 
ROOT
ATOM      1  O   UNL d   1     -20.882  22.746  30.113  0.00  0.00    -0.309 OA
ATOM      2  O   UNL d   1     -18.836  24.231  28.498  0.00  0.00    -0.287 OA
ATOM      3  C   UNL d   1     -19.262  22.900  29.520  0.00  0.00     0.081 A 
ATOM      4  C   UNL d   1     -21.139  23.582  29.629  0.00  0.00     0.090 A 
ATOM      5  C   UNL d   1     -19.944  22.404  30.058  0.00  0.00     0.095 A 
ATOM      6  C   UNL d   1     -19.518  23.736  29.036  0.00  0.00     0.190 A 
ATOM      7  C   UNL d   1     -20.457  24.078  29.090  0.00  0.00     0.094 A 
ATOM      8  C   UNL d   1     -18.281  22.556  29.454  0.00  0.00     0.085 A 
ATOM      9  C   UNL d   1     -19.692  21.531  30.568  0.00  0.00     0.075 A 
ATOM     10  C   UNL d   1     -18.717  21.170  30.516  0.00  0.00     0.071 A 
ATOM     11  C   UNL d   1     -18.007  21.685  29.956  0.00  0.00     0.074 A 
ENDROOT
BRANCH   4  12
ATOM     12  C   UNL d   1     -22.077  23.924  29.683  0.00  0.00     0.001 A 
ATOM     13  C   UNL d   1     -22.422  24.303  30.541  0.00  0.00     0.054 A 
ATOM     14  C   UNL d   1     -23.360  24.645  30.596  0.00  0.00     0.102 A 
ATOM     15  C   UNL d   1     -23.953  24.607  29.791  0.00  0.00     0.099 A 
ATOM     16  C   UNL d   1     -23.608  24.227  28.933  0.00  0.00     0.040 A 
ATOM     17  C   UNL d   1     -22.670  23.886  28.879  0.00  0.00     0.017 A 
BRANCH  14  18
ATOM     18  O   UNL d   1     -23.705  25.024  31.454  0.00  0.00    -0.353 OA
ATOM     19  C   UNL d   1     -23.389  24.654  32.327  0.00  0.00     0.210 C 
ENDBRANCH  14  18
BRANCH  15  20
ATOM     20  O   UNL d   1     -24.892  24.948  29.846  0.00  0.00    -0.358 OA
ATOM     21  H   UNL d   1     -25.286  24.846  29.378  0.00  0.00     0.217 HD
ENDBRANCH  15  20
ENDBRANCH   4  12
BRANCH   8  22
ATOM     22  O   UNL d   1     -17.607  23.059  28.913  0.00  0.00    -0.360 OA
ATOM     23  H   UNL d   1     -17.139  22.757  28.643  0.00  0.00     0.217 HD
ENDBRANCH   8  22
BRANCH  10  24
ATOM     24  O   UNL d   1     -18.464  20.332  31.002  0.00  0.00    -0.361 OA
ATOM     25  H   UNL d   1     -18.136  19.894  30.712  0.00  0.00     0.217 HD
ENDBRANCH  10  24
TORSDOF 5
ENDMDL
MODEL 4
REMARK VINA RESULT:    -7.895     15.176     16.657
REMARK INTER + INTRA:          -7.615
REMARK INTER:                  -9.461
REMARK INTRA:                   1.846
REMARK UNBOUND:                 1.896
REMARK  5 active torsions:
REMARK  status: ('A' for Active; 'I' for Inactive)
REMARK    1  A    between atoms: O_2  and  C_13 
REMARK    2  A    between atoms: O_3  and  C_19 
REMARK    3  A    between atoms: O_5  and  C_17 
REMARK    4  A    between atoms: O_6  and  C_21 
REMARK    5  A    between atoms: C_8  and  C_10 
ROOT
ATOM      1  O   UNL d   1     -21.033  24.101  29.162  0.00  0.00    -0.309 OA
ATOM      2  O   UNL d   1     -20.222  21.576  30.564  0.00  0.00    -0.287 OA
ATOM      3  C   UNL d   1     -19.816  22.942  29.579  0.00  0.00     0.081 A 
ATOM      4  C   UNL d   1     -21.710  23.577  29.679  0.00  0.00     0.090 A 
ATOM      5  C   UNL d   1     -20.087  23.784  29.112  0.00  0.00     0.095 A 
ATOM      6  C   UNL d   1     -20.492  22.418  30.096  0.00  0.00     0.190 A 
ATOM      7  C   UNL d   1     -21.439  22.735  30.147  0.00  0.00     0.094 A 
ATOM      8  C   UNL d   1     -18.834  22.599  29.536  0.00  0.00     0.085 A 
ATOM      9  C   UNL d   1     -19.393  24.340  28.568  0.00  0.00     0.075 A 
ATOM     10  C   UNL d   1     -18.405  24.016  28.512  0.00  0.00     0.071 A 
ATOM     11  C   UNL d   1     -18.124  23.140  28.998  0.00  0.00     0.074 A 
ENDROOT
BRANCH   4  12
ATOM     12  C   UNL d   1     -22.657  23.895  29.729  0.00  0.00     0.001 A 
ATOM     13  C   UNL d   1     -22.994  24.332  30.563  0.00  0.00     0.054 A 
ATOM     14  C   UNL d   1     -23.941  24.650  30.613  0.00  0.00     0.102 A 
ATOM     15  C   UNL d   1     -24.550  24.530  29.829  0.00  0.00     0.099 A 
ATOM     16  C   UNL d   1     -24.213  24.092  28.996  0.00  0.00     0.040 A 
ATOM     17  C   UNL d   1     -23.266  23.775  28.946  0.00  0.00     0.017 A 
BRANCH  14  18
ATOM     18  O   UNL d   1     -24.278  25.087  31.446  0.00  0.00    -0.353 OA
ATOM     19  C   UNL d   1     -23.759  25.009  32.297  0.00  0.00     0.210 C 
ENDBRANCH  14  18
BRANCH  15  20
ATOM     20  O   UNL d   1     -25.497  24.847  29.879  0.00  0.00    -0.358 OA
ATOM     21  H   UNL d   1     -25.857  24.677  30.355  0.00  0.00     0.217 HD
ENDBRANCH  15  20
ENDBRANCH   4  12
BRANCH   8  22
ATOM     22  O   UNL d   1     -18.574  21.756  30.007  0.00  0.00    -0.360 OA
ATOM     23  H   UNL d   1     -18.332  21.782  30.577  0.00  0.00     0.217 HD
ENDBRANCH   8  22
BRANCH  10  24
ATOM     24  O   UNL d   1     -17.732  24.543  27.993  0.00  0.00    -0.361 OA
ATOM     25  H   UNL d   1     -17.789  25.159  27.947  0.00  0.00     0.217 HD
ENDBRANCH  10  24
TORSDOF 5
ENDMDL
MODEL 5
REMARK VINA RESULT:    -7.879     14.971     16.528
REMARK INTER + INTRA:          -7.595
REMARK INTER:                  -9.500
REMARK INTRA:                   1.905
REMARK UNBOUND:                 1.896
REMARK  5 active torsions:
REMARK  status: ('A' for Active; 'I' for Inactive)
REMARK    1  A    between atoms: O_2  and  C_13 
REMARK    2  A    between atoms: O_3  and  C_19 
REMARK    3  A    between atoms: O_5  and  C_17 
REMARK    4  A    between atoms: O_6  and  C_21 
REMARK    5  A    between atoms: C_8  and  C_10 
ROOT
ATOM      1  O   UNL d   1     -19.515  22.550  30.181  0.00  0.00    -0.309 OA
ATOM      2  O   UNL d   1     -21.911  23.835  28.913  0.00  0.00    -0.287 OA
ATOM      3  C   UNL d   1     -20.193  23.638  29.016  0.00  0.00     0.081 A 
ATOM      4  C   UNL d   1     -20.434  22.319  30.500  0.00  0.00     0.090 A 
ATOM      5  C   UNL d   1     -19.394  23.209  29.439  0.00  0.00     0.095 A 
ATOM      6  C   UNL d   1     -21.112  23.407  29.335  0.00  0.00     0.190 A 
ATOM      7  C   UNL d   1     -21.232  22.747  30.077  0.00  0.00     0.094 A 
ATOM      8  C   UNL d   1     -20.083  24.326  28.242  0.00  0.00     0.085 A 
ATOM      9  C   UNL d   1     -18.431  23.440  29.117  0.00  0.00     0.075 A 
ATOM     10  C   UNL d   1     -18.298  24.126  28.344  0.00  0.00     0.071 A 
ATOM     11  C   UNL d   1     -19.129  24.572  27.904  0.00  0.00     0.074 A 
ENDROOT
BRANCH   4  12
ATOM     12  C   UNL d   1     -20.554  21.660  31.242  0.00  0.00     0.001 A 
ATOM     13  C   UNL d   1     -20.838  20.723  31.038  0.00  0.00     0.054 A 
ATOM     14  C   UNL d   1     -20.959  20.063  31.780  0.00  0.00     0.102 A 
ATOM     15  C   UNL d   1     -20.795  20.341  32.726  0.00  0.00     0.099 A 
ATOM     16  C   UNL d   1     -20.511  21.278  32.931  0.00  0.00     0.040 A 
ATOM     17  C   UNL d   1     -20.391  21.937  32.189  0.00  0.00     0.017 A 
BRANCH  14  18
ATOM     18  O   UNL d   1     -21.243  19.127  31.575  0.00  0.00    -0.353 OA
ATOM     19  C   UNL d   1     -21.934  18.956  30.873  0.00  0.00     0.210 C 
ENDBRANCH  14  18
BRANCH  15  20
ATOM     20  O   UNL d   1     -20.915  19.681  33.468  0.00  0.00    -0.358 OA
ATOM     21  H   UNL d   1     -20.540  19.190  33.510  0.00  0.00     0.217 HD
ENDBRANCH  15  20
ENDBRANCH   4  12
BRANCH   8  22
ATOM     22  O   UNL d   1     -20.889  24.748  27.827  0.00  0.00    -0.360 OA
ATOM     23  H   UNL d   1     -21.204  25.184  28.135  0.00  0.00     0.217 HD
ENDBRANCH   8  22
BRANCH  10  24
ATOM     24  O   UNL d   1     -17.377  24.354  28.028  0.00  0.00    -0.361 OA
ATOM     25  H   UNL d   1     -16.907  23.964  28.135  0.00  0.00     0.217 HD
ENDBRANCH  10  24
TORSDOF 5
ENDMDL
