MODEL 1
REMARK VINA RESULT:    -8.207      0.000      0.000
REMARK INTER + INTRA:          -8.155
REMARK INTER:                  -9.181
REMARK INTRA:                   1.026
REMARK UNBOUND:                 1.012
REMARK  3 active torsions:
REMARK  status: ('A' for Active; 'I' for Inactive)
REMARK    1  A    between atoms: O_2  and  C_10 
REMARK    2  A    between atoms: O_4  and  C_13 
REMARK    3  A    between atoms: C_7  and  C_9 
ROOT
ATOM      1  O   UNL d   1     -19.295  22.804  29.918  0.00  0.00    -0.309 OA
ATOM      2  O   UNL d   1     -21.855  23.925  28.829  0.00  0.00    -0.287 OA
ATOM      3  C   UNL d   1     -20.126  23.841  28.806  0.00  0.00     0.081 A 
ATOM      4  C   UNL d   1     -19.272  23.467  29.169  0.00  0.00     0.095 A 
ATOM      5  C   UNL d   1     -20.171  22.515  30.303  0.00  0.00     0.090 A 
ATOM      6  C   UNL d   1     -21.002  23.551  29.192  0.00  0.00     0.190 A 
ATOM      7  C   UNL d   1     -20.118  24.532  28.027  0.00  0.00     0.085 A 
ATOM      8  C   UNL d   1     -21.024  22.889  29.940  0.00  0.00     0.094 A 
ATOM      9  C   UNL d   1     -18.351  23.758  28.778  0.00  0.00     0.075 A 
ATOM     10  C   UNL d   1     -18.320  24.448  27.999  0.00  0.00     0.071 A 
ATOM     11  C   UNL d   1     -19.209  24.837  27.621  0.00  0.00     0.074 A 
ENDROOT
BRANCH   5  12
ATOM     12  C   UNL d   1     -20.193  21.852  31.051  0.00  0.00    -0.002 A 
ATOM     13  C   UNL d   1     -19.943  22.134  31.977  0.00  0.00     0.014 A 
ATOM     14  C   UNL d   1     -19.966  21.472  32.726  0.00  0.00     0.001 A 
ATOM     15  C   UNL d   1     -20.239  20.526  32.548  0.00  0.00     0.000 A 
ATOM     16  C   UNL d   1     -20.489  20.243  31.622  0.00  0.00     0.001 A 
ATOM     17  C   UNL d   1     -20.466  20.906  30.874  0.00  0.00     0.014 A 
ENDBRANCH   5  12
BRANCH   7  18
ATOM     18  O   UNL d   1     -20.977  24.899  27.672  0.00  0.00    -0.360 OA
ATOM     19  H   UNL d   1     -21.259  24.622  27.195  0.00  0.00     0.217 HD
ENDBRANCH   7  18
BRANCH  10  20
ATOM     20  O   UNL d   1     -17.441  24.735  27.616  0.00  0.00    -0.361 OA
ATOM     21  H   UNL d   1     -16.913  24.514  27.854  0.00  0.00     0.217 HD
ENDBRANCH  10  20
TORSDOF 3
ENDMDL
MODEL 2
REMARK VINA RESULT:    -8.146      0.910      2.230
REMARK INTER + INTRA:          -8.087
REMARK INTER:                  -9.088
REMARK INTRA:                   1.001
REMARK UNBOUND:                 1.012
REMARK  3 active torsions:
REMARK  status: ('A' for Active; 'I' for Inactive)
REMARK    1  A    between atoms: O_2  and  C_10 
REMARK    2  A    between atoms: O_4  and  C_13 
REMARK    3  A    between atoms: C_7  and  C_9 
ROOT
ATOM      1  O   UNL d   1     -20.423  22.461  30.210  0.00  0.00    -0.309 OA
ATOM      2  O   UNL d   1     -17.454  22.777  29.920  0.00  0.00    -0.287 OA
ATOM      3  C   UNL d   1     -19.062  23.180  29.416  0.00  0.00     0.081 A 
ATOM      4  C   UNL d   1     -20.052  23.074  29.513  0.00  0.00     0.095 A 
ATOM      5  C   UNL d   1     -19.805  21.953  30.810  0.00  0.00     0.090 A 
ATOM      6  C   UNL d   1     -18.444  22.672  30.016  0.00  0.00     0.190 A 
ATOM      7  C   UNL d   1     -18.661  23.815  28.695  0.00  0.00     0.085 A 
ATOM      8  C   UNL d   1     -18.816  22.058  30.713  0.00  0.00     0.094 A 
ATOM      9  C   UNL d   1     -20.708  23.596  28.895  0.00  0.00     0.075 A 
ATOM     10  C   UNL d   1     -20.328  24.237  28.167  0.00  0.00     0.071 A 
ATOM     11  C   UNL d   1     -19.298  24.347  28.066  0.00  0.00     0.074 A 
ENDROOT
BRANCH   5  12
ATOM     12  C   UNL d   1     -20.177  21.339  31.507  0.00  0.00    -0.002 A 
ATOM     13  C   UNL d   1     -20.413  20.397  31.269  0.00  0.00     0.014 A 
ATOM     14  C   UNL d   1     -20.784  19.784  31.966  0.00  0.00     0.001 A 
ATOM     15  C   UNL d   1     -20.921  20.113  32.900  0.00  0.00     0.000 A 
ATOM     16  C   UNL d   1     -20.685  21.055  33.138  0.00  0.00     0.001 A 
ATOM     17  C   UNL d   1     -20.313  21.668  32.441  0.00  0.00     0.014 A 
ENDBRANCH   5  12
BRANCH   7  18
ATOM     18  O   UNL d   1     -17.669  23.913  28.607  0.00  0.00    -0.360 OA
ATOM     19  H   UNL d   1     -17.302  23.789  29.091  0.00  0.00     0.217 HD
ENDBRANCH   7  18
BRANCH  10  20
ATOM     20  O   UNL d   1     -20.950  24.743  27.569  0.00  0.00    -0.361 OA
ATOM     21  H   UNL d   1     -21.375  24.439  27.235  0.00  0.00     0.217 HD
ENDBRANCH  10  20
TORSDOF 3
ENDMDL
MODEL 3
REMARK VINA RESULT:    -8.044     15.024     16.396
REMARK INTER + INTRA:          -7.973
REMARK INTER:                  -8.991
REMARK INTRA:                   1.018
REMARK UNBOUND:                 1.012
REMARK  3 active torsions:
REMARK  status: ('A' for Active; 'I' for Inactive)
REMARK    1  A    between atoms: O_2  and  C_10 
REMARK    2  A    between atoms: O_4  and  C_13 
REMARK    3  A    between atoms: C_7  and  C_9 
ROOT
ATOM      1  O   UNL d   1     -13.850  18.431  16.333  0.00  0.00    -0.309 OA
ATOM      2  O   UNL d   1     -12.623  18.474  13.596  0.00  0.00    -0.287 OA
ATOM      3  C   UNL d   1     -12.455  18.315  15.312  0.00  0.00     0.081 A 
ATOM      4  C   UNL d   1     -12.864  18.301  16.225  0.00  0.00     0.095 A 
ATOM      5  C   UNL d   1     -14.426  18.575  15.529  0.00  0.00     0.090 A 
ATOM      6  C   UNL d   1     -13.032  18.460  14.508  0.00  0.00     0.190 A 
ATOM      7  C   UNL d   1     -11.431  18.181  15.184  0.00  0.00     0.085 A 
ATOM      8  C   UNL d   1     -14.018  18.590  14.617  0.00  0.00     0.094 A 
ATOM      9  C   UNL d   1     -12.276  18.152  17.072  0.00  0.00     0.075 A 
ATOM     10  C   UNL d   1     -11.249  18.016  16.967  0.00  0.00     0.071 A 
ATOM     11  C   UNL d   1     -10.824  18.031  16.017  0.00  0.00     0.074 A 
ENDROOT
BRANCH   5  12
ATOM     12  C   UNL d   1     -15.412  18.705  15.638  0.00  0.00    -0.002 A 
ATOM     13  C   UNL d   1     -16.005  17.918  15.807  0.00  0.00     0.014 A 
ATOM     14  C   UNL d   1     -16.990  18.048  15.915  0.00  0.00     0.001 A 
ATOM     15  C   UNL d   1     -17.383  18.965  15.855  0.00  0.00     0.000 A 
ATOM     16  C   UNL d   1     -16.790  19.753  15.686  0.00  0.00     0.001 A 
ATOM     17  C   UNL d   1     -15.805  19.623  15.577  0.00  0.00     0.014 A 
ENDBRANCH   5  12
BRANCH   7  18
ATOM     18  O   UNL d   1     -11.033  18.198  14.267  0.00  0.00    -0.360 OA
ATOM     19  H   UNL d   1     -10.583  18.603  14.132  0.00  0.00     0.217 HD
ENDBRANCH   7  18
BRANCH  10  20
ATOM     20  O   UNL d   1     -10.676  17.871  17.774  0.00  0.00    -0.361 OA
ATOM     21  H   UNL d   1     -10.887  17.530  18.247  0.00  0.00     0.217 HD
ENDBRANCH  10  20
TORSDOF 3
ENDMDL
MODEL 4
REMARK VINA RESULT:    -8.005      1.810      3.446
REMARK INTER + INTRA:          -7.929
REMARK INTER:                  -8.928
REMARK INTRA:                   0.999
REMARK UNBOUND:                 1.012
REMARK  3 active torsions:
REMARK  status: ('A' for Active; 'I' for Inactive)
REMARK    1  A    between atoms: O_2  and  C_10 
REMARK    2  A    between atoms: O_4  and  C_13 
REMARK    3  A    between atoms: C_7  and  C_9 
ROOT
ATOM      1  O   UNL d   1     -21.072  24.098  29.102  0.00  0.00    -0.309 OA
ATOM      2  O   UNL d   1     -20.290  21.698  30.724  0.00  0.00    -0.287 OA
ATOM      3  C   UNL d   1     -19.861  22.989  29.651  0.00  0.00     0.081 A 
ATOM      4  C   UNL d   1     -20.121  23.789  29.110  0.00  0.00     0.095 A 
ATOM      5  C   UNL d   1     -21.762  23.608  29.634  0.00  0.00     0.090 A 
ATOM      6  C   UNL d   1     -20.551  22.498  30.183  0.00  0.00     0.190 A 
ATOM      7  C   UNL d   1     -18.875  22.655  29.669  0.00  0.00     0.085 A 
ATOM      8  C   UNL d   1     -21.502  22.808  30.175  0.00  0.00     0.094 A 
ATOM      9  C   UNL d   1     -19.414  24.310  28.551  0.00  0.00     0.075 A 
ATOM     10  C   UNL d   1     -18.421  23.993  28.555  0.00  0.00     0.071 A 
ATOM     11  C   UNL d   1     -18.150  23.160  29.117  0.00  0.00     0.074 A 
ENDROOT
BRANCH   5  12
ATOM     12  C   UNL d   1     -22.713  23.918  29.626  0.00  0.00    -0.002 A 
ATOM     13  C   UNL d   1     -23.024  24.596  30.291  0.00  0.00     0.014 A 
ATOM     14  C   UNL d   1     -23.975  24.906  30.283  0.00  0.00     0.001 A 
ATOM     15  C   UNL d   1     -24.615  24.537  29.609  0.00  0.00     0.000 A 
ATOM     16  C   UNL d   1     -24.304  23.858  28.944  0.00  0.00     0.001 A 
ATOM     17  C   UNL d   1     -23.353  23.549  28.952  0.00  0.00     0.014 A 
ENDBRANCH   5  12
BRANCH   7  18
ATOM     18  O   UNL d   1     -18.625  21.854  30.213  0.00  0.00    -0.360 OA
ATOM     19  H   UNL d   1     -18.060  21.606  30.158  0.00  0.00     0.217 HD
ENDBRANCH   7  18
BRANCH  10  20
ATOM     20  O   UNL d   1     -17.734  24.486  28.021  0.00  0.00    -0.361 OA
ATOM     21  H   UNL d   1     -17.367  24.178  27.628  0.00  0.00     0.217 HD
ENDBRANCH  10  20
TORSDOF 3
ENDMDL
MODEL 5
REMARK VINA RESULT:    -7.757     36.528     38.137
REMARK INTER + INTRA:          -7.652
REMARK INTER:                  -8.954
REMARK INTRA:                   1.302
REMARK UNBOUND:                 1.012
REMARK  3 active torsions:
REMARK  status: ('A' for Active; 'I' for Inactive)
REMARK    1  A    between atoms: O_2  and  C_10 
REMARK    2  A    between atoms: O_4  and  C_13 
REMARK    3  A    between atoms: C_7  and  C_9 
ROOT
ATOM      1  O   UNL d   1       7.715  26.286   3.222  0.00  0.00    -0.309 OA
ATOM      2  O   UNL d   1       4.771  25.829   2.865  0.00  0.00    -0.287 OA
ATOM      3  C   UNL d   1       6.080  26.829   3.401  0.00  0.00     0.081 A 
ATOM      4  C   UNL d   1       7.061  26.981   3.520  0.00  0.00     0.095 A 
ATOM      5  C   UNL d   1       7.387  25.438   2.805  0.00  0.00     0.090 A 
ATOM      6  C   UNL d   1       5.752  25.981   2.984  0.00  0.00     0.190 A 
ATOM      7  C   UNL d   1       5.387  27.544   3.707  0.00  0.00     0.085 A 
ATOM      8  C   UNL d   1       6.406  25.286   2.686  0.00  0.00     0.094 A 
ATOM      9  C   UNL d   1       7.417  27.860   3.953  0.00  0.00     0.075 A 
ATOM     10  C   UNL d   1       6.742  28.589   4.266  0.00  0.00     0.071 A 
ATOM     11  C   UNL d   1       5.721  28.430   4.142  0.00  0.00     0.074 A 
ENDROOT
BRANCH   5  12
ATOM     12  C   UNL d   1       8.041  24.743   2.507  0.00  0.00    -0.002 A 
ATOM     13  C   UNL d   1       7.840  24.178   1.707  0.00  0.00     0.014 A 
ATOM     14  C   UNL d   1       8.494  23.482   1.409  0.00  0.00     0.001 A 
ATOM     15  C   UNL d   1       9.349  23.352   1.911  0.00  0.00     0.000 A 
ATOM     16  C   UNL d   1       9.550  23.917   2.712  0.00  0.00     0.001 A 
ATOM     17  C   UNL d   1       8.896  24.612   3.010  0.00  0.00     0.014 A 
ENDBRANCH   5  12
BRANCH   7  18
ATOM     18  O   UNL d   1       4.408  27.381   3.582  0.00  0.00    -0.360 OA
ATOM     19  H   UNL d   1       4.213  26.861   3.309  0.00  0.00     0.217 HD
ENDBRANCH   7  18
BRANCH  10  20
ATOM     20  O   UNL d   1       7.073  29.435   4.683  0.00  0.00    -0.361 OA
ATOM     21  H   UNL d   1       7.656  29.623   4.582  0.00  0.00     0.217 HD
ENDBRANCH  10  20
TORSDOF 3
ENDMDL
