MODEL 1
REMARK VINA RESULT:    -8.361      0.000      0.000
REMARK INTER + INTRA:           1.141
REMARK INTER:                 -11.367
REMARK INTRA:                  12.508
REMARK UNBOUND:                12.434
REMARK  9 active torsions:
REMARK  status: ('A' for Active; 'I' for Inactive)
REMARK    1  A    between atoms: C_15  and  O_2 
REMARK    2  A    between atoms: O_2  and  C_17 
REMARK    3  A    between atoms: C_11  and  O_3 
REMARK    4  A    between atoms: C_12  and  O_4 
REMARK    5  A    between atoms: C_13  and  O_5 
REMARK    6  A    between atoms: O_8  and  C_23 
REMARK    7  A    between atoms: O_9  and  C_28 
REMARK    8  A    between atoms: O_10  and  C_31 
REMARK    9  A    between atoms: C_18  and  C_22 
ROOT
ATOM      1  O   UNL d   1      -0.942 -28.699  13.109  0.00  0.00    -0.306 OA
ATOM      2  O   UNL d   1       1.573 -30.077  12.229  0.00  0.00    -0.284 OA
ATOM      3  C   UNL d   1       0.052 -30.117  13.056  0.00  0.00     0.157 A 
ATOM      4  C   UNL d   1      -0.787 -29.658  13.349  0.00  0.00     0.123 A 
ATOM      5  C   UNL d   1       0.735 -29.618  12.522  0.00  0.00     0.223 A 
ATOM      6  C   UNL d   1       0.579 -28.660  12.282  0.00  0.00     0.084 A 
ATOM      7  C   UNL d   1      -0.259 -28.201  12.575  0.00  0.00     0.096 A 
ATOM      8  C   UNL d   1       1.299 -28.153  11.725  0.00  0.00     0.085 A 
ATOM      9  C   UNL d   1      -0.436 -27.203  12.332  0.00  0.00     0.075 A 
ATOM     10  C   UNL d   1       1.144 -27.155  11.471  0.00  0.00     0.074 A 
ATOM     11  C   UNL d   1       0.271 -26.676  11.776  0.00  0.00     0.071 A 
ENDROOT
BRANCH   3  12
ATOM     12  O   UNL d   1       0.207 -31.075  13.297  0.00  0.00    -0.311 OA
BRANCH  12  13
ATOM     13  C   UNL d   1       0.876 -31.311  14.002  0.00  0.00     0.298 A 
ATOM     14  O   UNL d   1       1.186 -30.616  14.650  0.00  0.00    -0.351 OA
ATOM     15  C   UNL d   1       1.854 -30.852  15.355  0.00  0.00     0.152 A 
ATOM     16  C   UNL d   1       2.213 -31.784  15.412  0.00  0.00     0.178 A 
ATOM     17  C   UNL d   1       2.164 -30.156  16.003  0.00  0.00     0.042 C 
ATOM     18  C   UNL d   1       1.903 -32.479  14.764  0.00  0.00     0.183 A 
ATOM     19  C   UNL d   1       1.234 -32.243  14.059  0.00  0.00     0.205 A 
BRANCH  16  20
ATOM     20  O   UNL d   1       2.881 -32.020  16.118  0.00  0.00    -0.390 OA
ATOM     21  H   UNL d   1       3.147 -31.573  16.455  0.00  0.00     0.210 HD
ENDBRANCH  16  20
BRANCH  18  22
ATOM     22  O   UNL d   1       2.261 -33.411  14.822  0.00  0.00    -0.390 OA
ATOM     23  H   UNL d   1       2.134 -33.820  14.373  0.00  0.00     0.210 HD
ENDBRANCH  18  22
BRANCH  19  24
ATOM     24  O   UNL d   1       0.924 -32.939  13.411  0.00  0.00    -0.388 OA
ATOM     25  H   UNL d   1       0.907 -33.535  13.580  0.00  0.00     0.210 HD
ENDBRANCH  19  24
ENDBRANCH  12  13
ENDBRANCH   3  12
BRANCH   4  26
ATOM     26  C   UNL d   1      -1.470 -30.156  13.883  0.00  0.00     0.001 A 
ATOM     27  C   UNL d   1      -1.999 -30.890  13.457  0.00  0.00     0.017 A 
ATOM     28  C   UNL d   1      -2.682 -31.388  13.990  0.00  0.00     0.037 A 
ATOM     29  C   UNL d   1      -2.835 -31.154  14.950  0.00  0.00     0.065 A 
ATOM     30  C   UNL d   1      -2.306 -30.421  15.377  0.00  0.00     0.037 A 
ATOM     31  C   UNL d   1      -1.623 -29.922  14.843  0.00  0.00     0.017 A 
BRANCH  29  32
ATOM     32  O   UNL d   1      -3.518 -31.653  15.484  0.00  0.00    -0.361 OA
ATOM     33  H   UNL d   1      -3.957 -31.343  15.793  0.00  0.00     0.217 HD
ENDBRANCH  29  32
ENDBRANCH   4  26
BRANCH   8  34
ATOM     34  O   UNL d   1       2.134 -28.622  11.438  0.00  0.00    -0.360 OA
ATOM     35  H   UNL d   1       2.673 -28.496  11.718  0.00  0.00     0.217 HD
ENDBRANCH   8  34
BRANCH  11  36
ATOM     36  O   UNL d   1       0.112 -25.718  11.538  0.00  0.00    -0.361 OA
ATOM     37  H   UNL d   1       0.122 -25.541  10.943  0.00  0.00     0.217 HD
ENDBRANCH  11  36
TORSDOF 9
ENDMDL
MODEL 2
REMARK VINA RESULT:    -8.356     29.264     32.590
REMARK INTER + INTRA:           1.147
REMARK INTER:                 -11.304
REMARK INTRA:                  12.451
REMARK UNBOUND:                12.434
REMARK  9 active torsions:
REMARK  status: ('A' for Active; 'I' for Inactive)
REMARK    1  A    between atoms: C_15  and  O_2 
REMARK    2  A    between atoms: O_2  and  C_17 
REMARK    3  A    between atoms: C_11  and  O_3 
REMARK    4  A    between atoms: C_12  and  O_4 
REMARK    5  A    between atoms: C_13  and  O_5 
REMARK    6  A    between atoms: O_8  and  C_23 
REMARK    7  A    between atoms: O_9  and  C_28 
REMARK    8  A    between atoms: O_10  and  C_31 
REMARK    9  A    between atoms: C_18  and  C_22 
ROOT
ATOM      1  O   UNL d   1      -7.769   0.766  19.391  0.00  0.00    -0.306 OA
ATOM      2  O   UNL d   1      -6.963   3.080  17.660  0.00  0.00    -0.284 OA
ATOM      3  C   UNL d   1      -7.210   1.379  17.871  0.00  0.00     0.157 A 
ATOM      4  C   UNL d   1      -7.478   0.608  18.448  0.00  0.00     0.123 A 
ATOM      5  C   UNL d   1      -7.231   2.309  18.237  0.00  0.00     0.223 A 
ATOM      6  C   UNL d   1      -7.522   2.468  19.181  0.00  0.00     0.084 A 
ATOM      7  C   UNL d   1      -7.791   1.696  19.758  0.00  0.00     0.096 A 
ATOM      8  C   UNL d   1      -7.540   3.442  19.549  0.00  0.00     0.085 A 
ATOM      9  C   UNL d   1      -8.096   1.846  20.743  0.00  0.00     0.075 A 
ATOM     10  C   UNL d   1      -7.841   3.615  20.531  0.00  0.00     0.074 A 
ATOM     11  C   UNL d   1      -8.121   2.812  21.132  0.00  0.00     0.071 A 
ENDROOT
BRANCH   3  12
ATOM     12  O   UNL d   1      -6.919   1.220  16.927  0.00  0.00    -0.311 OA
BRANCH  12  13
ATOM     13  C   UNL d   1      -5.974   1.405  16.657  0.00  0.00     0.298 A 
ATOM     14  O   UNL d   1      -5.240   1.347  17.334  0.00  0.00    -0.351 OA
ATOM     15  C   UNL d   1      -4.295   1.532  17.063  0.00  0.00     0.152 A 
ATOM     16  C   UNL d   1      -4.085   1.776  16.117  0.00  0.00     0.178 A 
ATOM     17  C   UNL d   1      -3.561   1.473  17.740  0.00  0.00     0.042 C 
ATOM     18  C   UNL d   1      -4.819   1.835  15.440  0.00  0.00     0.183 A 
ATOM     19  C   UNL d   1      -5.763   1.649  15.710  0.00  0.00     0.205 A 
BRANCH  16  20
ATOM     20  O   UNL d   1      -3.140   1.961  15.847  0.00  0.00    -0.390 OA
ATOM     21  H   UNL d   1      -3.005   2.470  15.520  0.00  0.00     0.210 HD
ENDBRANCH  16  20
BRANCH  18  22
ATOM     22  O   UNL d   1      -4.608   2.079  14.494  0.00  0.00    -0.390 OA
ATOM     23  H   UNL d   1      -4.750   2.643  14.280  0.00  0.00     0.210 HD
ENDBRANCH  18  22
BRANCH  19  24
ATOM     24  O   UNL d   1      -6.498   1.708  15.034  0.00  0.00    -0.388 OA
ATOM     25  H   UNL d   1      -7.082   1.586  15.200  0.00  0.00     0.210 HD
ENDBRANCH  19  24
ENDBRANCH  12  13
ENDBRANCH   3  12
BRANCH   4  26
ATOM     26  C   UNL d   1      -7.457  -0.322  18.081  0.00  0.00     0.001 A 
ATOM     27  C   UNL d   1      -6.693  -0.929  18.301  0.00  0.00     0.017 A 
ATOM     28  C   UNL d   1      -6.671  -1.859  17.934  0.00  0.00     0.037 A 
ATOM     29  C   UNL d   1      -7.413  -2.183  17.348  0.00  0.00     0.065 A 
ATOM     30  C   UNL d   1      -8.177  -1.576  17.127  0.00  0.00     0.037 A 
ATOM     31  C   UNL d   1      -8.199  -0.646  17.494  0.00  0.00     0.017 A 
BRANCH  29  32
ATOM     32  O   UNL d   1      -7.391  -3.113  16.981  0.00  0.00    -0.361 OA
ATOM     33  H   UNL d   1      -6.856  -3.355  16.781  0.00  0.00     0.217 HD
ENDBRANCH  29  32
ENDBRANCH   4  26
BRANCH   8  34
ATOM     34  O   UNL d   1      -7.269   4.206  18.963  0.00  0.00    -0.360 OA
ATOM     35  H   UNL d   1      -7.350   4.170  18.349  0.00  0.00     0.217 HD
ENDBRANCH   8  34
BRANCH  11  36
ATOM     36  O   UNL d   1      -8.413   2.967  22.076  0.00  0.00    -0.361 OA
ATOM     37  H   UNL d   1      -8.097   2.710  22.544  0.00  0.00     0.217 HD
ENDBRANCH  11  36
TORSDOF 9
ENDMDL
MODEL 3
REMARK VINA RESULT:    -8.345      1.665      3.199
REMARK INTER + INTRA:           1.162
REMARK INTER:                 -11.243
REMARK INTRA:                  12.405
REMARK UNBOUND:                12.434
REMARK  9 active torsions:
REMARK  status: ('A' for Active; 'I' for Inactive)
REMARK    1  A    between atoms: C_15  and  O_2 
REMARK    2  A    between atoms: O_2  and  C_17 
REMARK    3  A    between atoms: C_11  and  O_3 
REMARK    4  A    between atoms: C_12  and  O_4 
REMARK    5  A    between atoms: C_13  and  O_5 
REMARK    6  A    between atoms: O_8  and  C_23 
REMARK    7  A    between atoms: O_9  and  C_28 
REMARK    8  A    between atoms: O_10  and  C_31 
REMARK    9  A    between atoms: C_18  and  C_22 
ROOT
ATOM      1  O   UNL d   1       0.919 -29.106  11.519  0.00  0.00    -0.306 OA
ATOM      2  O   UNL d   1      -1.353 -29.005  13.476  0.00  0.00    -0.284 OA
ATOM      3  C   UNL d   1      -0.183 -29.917  12.581  0.00  0.00     0.157 A 
ATOM      4  C   UNL d   1       0.574 -29.950  11.929  0.00  0.00     0.123 A 
ATOM      5  C   UNL d   1      -0.596 -29.038  12.823  0.00  0.00     0.223 A 
ATOM      6  C   UNL d   1      -0.251 -28.194  12.414  0.00  0.00     0.084 A 
ATOM      7  C   UNL d   1       0.507 -28.227  11.762  0.00  0.00     0.096 A 
ATOM      8  C   UNL d   1      -0.691 -27.287  12.676  0.00  0.00     0.085 A 
ATOM      9  C   UNL d   1       0.877 -27.356  11.327  0.00  0.00     0.075 A 
ATOM     10  C   UNL d   1      -0.336 -26.403  12.254  0.00  0.00     0.074 A 
ATOM     11  C   UNL d   1       0.452 -26.437  11.574  0.00  0.00     0.071 A 
ENDROOT
BRANCH   3  12
ATOM     12  O   UNL d   1      -0.528 -30.761  12.991  0.00  0.00    -0.311 OA
BRANCH  12  13
ATOM     13  C   UNL d   1      -0.392 -30.936  13.966  0.00  0.00     0.298 A 
ATOM     14  O   UNL d   1       0.377 -30.515  14.446  0.00  0.00    -0.351 OA
ATOM     15  C   UNL d   1       0.513 -30.690  15.421  0.00  0.00     0.152 A 
ATOM     16  C   UNL d   1      -0.119 -31.286  15.916  0.00  0.00     0.178 A 
ATOM     17  C   UNL d   1       1.283 -30.269  15.902  0.00  0.00     0.042 C 
ATOM     18  C   UNL d   1      -0.888 -31.707  15.435  0.00  0.00     0.183 A 
ATOM     19  C   UNL d   1      -1.025 -31.532  14.460  0.00  0.00     0.205 A 
BRANCH  16  20
ATOM     20  O   UNL d   1       0.017 -31.461  16.891  0.00  0.00    -0.390 OA
ATOM     21  H   UNL d   1      -0.414 -31.284  17.301  0.00  0.00     0.210 HD
ENDBRANCH  16  20
BRANCH  18  22
ATOM     22  O   UNL d   1      -1.521 -32.303  15.929  0.00  0.00    -0.390 OA
ATOM     23  H   UNL d   1      -1.332 -32.601  16.439  0.00  0.00     0.210 HD
ENDBRANCH  18  22
BRANCH  19  24
ATOM     24  O   UNL d   1      -1.794 -31.953  13.979  0.00  0.00    -0.388 OA
ATOM     25  H   UNL d   1      -1.998 -31.709  13.447  0.00  0.00     0.210 HD
ENDBRANCH  19  24
ENDBRANCH  12  13
ENDBRANCH   3  12
BRANCH   4  26
ATOM     26  C   UNL d   1       0.987 -30.828  11.687  0.00  0.00     0.001 A 
ATOM     27  C   UNL d   1       0.498 -31.462  11.087  0.00  0.00     0.017 A 
ATOM     28  C   UNL d   1       0.910 -32.340  10.844  0.00  0.00     0.037 A 
ATOM     29  C   UNL d   1       1.811 -32.584  11.202  0.00  0.00     0.065 A 
ATOM     30  C   UNL d   1       2.301 -31.951  11.801  0.00  0.00     0.037 A 
ATOM     31  C   UNL d   1       1.888 -31.073  12.044  0.00  0.00     0.017 A 
BRANCH  29  32
ATOM     32  O   UNL d   1       2.224 -33.462  10.959  0.00  0.00    -0.361 OA
ATOM     33  H   UNL d   1       2.183 -33.943  11.349  0.00  0.00     0.217 HD
ENDBRANCH  29  32
ENDBRANCH   4  26
BRANCH   8  34
ATOM     34  O   UNL d   1      -1.447 -27.265  13.329  0.00  0.00    -0.360 OA
ATOM     35  H   UNL d   1      -1.895 -26.839  13.271  0.00  0.00     0.217 HD
ENDBRANCH   8  34
BRANCH  11  36
ATOM     36  O   UNL d   1       0.800 -25.595  11.163  0.00  0.00    -0.361 OA
ATOM     37  H   UNL d   1       0.565 -25.047  11.333  0.00  0.00     0.217 HD
ENDBRANCH  11  36
TORSDOF 9
ENDMDL
MODEL 4
REMARK VINA RESULT:    -8.235      2.103      4.084
REMARK INTER + INTRA:           1.311
REMARK INTER:                 -11.281
REMARK INTRA:                  12.592
REMARK UNBOUND:                12.434
REMARK  9 active torsions:
REMARK  status: ('A' for Active; 'I' for Inactive)
REMARK    1  A    between atoms: C_15  and  O_2 
REMARK    2  A    between atoms: O_2  and  C_17 
REMARK    3  A    between atoms: C_11  and  O_3 
REMARK    4  A    between atoms: C_12  and  O_4 
REMARK    5  A    between atoms: C_13  and  O_5 
REMARK    6  A    between atoms: O_8  and  C_23 
REMARK    7  A    between atoms: O_9  and  C_28 
REMARK    8  A    between atoms: O_10  and  C_31 
REMARK    9  A    between atoms: C_18  and  C_22 
ROOT
ATOM      1  O   UNL d   1       2.204 -28.242  11.306  0.00  0.00    -0.306 OA
ATOM      2  O   UNL d   1       0.069 -29.908  12.597  0.00  0.00    -0.284 OA
ATOM      3  C   UNL d   1       1.643 -29.774  11.887  0.00  0.00     0.157 A 
ATOM      4  C   UNL d   1       2.355 -29.219  11.457  0.00  0.00     0.123 A 
ATOM      5  C   UNL d   1       0.781 -29.353  12.167  0.00  0.00     0.223 A 
ATOM      6  C   UNL d   1       0.630 -28.376  12.017  0.00  0.00     0.084 A 
ATOM      7  C   UNL d   1       1.341 -27.820  11.586  0.00  0.00     0.096 A 
ATOM      8  C   UNL d   1      -0.274 -27.951  12.314  0.00  0.00     0.085 A 
ATOM      9  C   UNL d   1       1.199 -26.801  11.423  0.00  0.00     0.075 A 
ATOM     10  C   UNL d   1      -0.438 -26.933  12.160  0.00  0.00     0.074 A 
ATOM     11  C   UNL d   1       0.303 -26.354  11.712  0.00  0.00     0.071 A 
ENDROOT
BRANCH   3  12
ATOM     12  O   UNL d   1       1.794 -30.751  12.037  0.00  0.00    -0.311 OA
BRANCH  12  13
ATOM     13  C   UNL d   1       1.843 -31.112  12.969  0.00  0.00     0.298 A 
ATOM     14  O   UNL d   1       2.046 -30.499  13.732  0.00  0.00    -0.351 OA
ATOM     15  C   UNL d   1       2.095 -30.860  14.664  0.00  0.00     0.152 A 
ATOM     16  C   UNL d   1       1.940 -31.834  14.831  0.00  0.00     0.178 A 
ATOM     17  C   UNL d   1       2.299 -30.248  15.427  0.00  0.00     0.042 C 
ATOM     18  C   UNL d   1       1.737 -32.447  14.068  0.00  0.00     0.183 A 
ATOM     19  C   UNL d   1       1.688 -32.086  13.136  0.00  0.00     0.205 A 
BRANCH  16  20
ATOM     20  O   UNL d   1       1.989 -32.195  15.763  0.00  0.00    -0.390 OA
ATOM     21  H   UNL d   1       2.517 -32.152  16.085  0.00  0.00     0.210 HD
ENDBRANCH  16  20
BRANCH  18  22
ATOM     22  O   UNL d   1       1.582 -33.420  14.235  0.00  0.00    -0.390 OA
ATOM     23  H   UNL d   1       1.800 -33.842  13.837  0.00  0.00     0.210 HD
ENDBRANCH  18  22
BRANCH  19  24
ATOM     24  O   UNL d   1       1.485 -32.698  12.373  0.00  0.00    -0.388 OA
ATOM     25  H   UNL d   1       1.289 -32.466  11.832  0.00  0.00     0.210 HD
ENDBRANCH  19  24
ENDBRANCH  12  13
ENDBRANCH   3  12
BRANCH   4  26
ATOM     26  C   UNL d   1       3.217 -29.640  11.177  0.00  0.00     0.001 A 
ATOM     27  C   UNL d   1       4.058 -29.442  11.681  0.00  0.00     0.017 A 
ATOM     28  C   UNL d   1       4.920 -29.863  11.401  0.00  0.00     0.037 A 
ATOM     29  C   UNL d   1       4.942 -30.483  10.617  0.00  0.00     0.065 A 
ATOM     30  C   UNL d   1       4.102 -30.682  10.113  0.00  0.00     0.037 A 
ATOM     31  C   UNL d   1       3.239 -30.260  10.393  0.00  0.00     0.017 A 
BRANCH  29  32
ATOM     32  O   UNL d   1       5.805 -30.905  10.337  0.00  0.00    -0.361 OA
ATOM     33  H   UNL d   1       6.290 -30.904  10.723  0.00  0.00     0.217 HD
ENDBRANCH  29  32
ENDBRANCH   4  26
BRANCH   8  34
ATOM     34  O   UNL d   1      -0.978 -28.515  12.743  0.00  0.00    -0.360 OA
ATOM     35  H   UNL d   1      -1.012 -29.121  12.613  0.00  0.00     0.217 HD
ENDBRANCH   8  34
BRANCH  11  36
ATOM     36  O   UNL d   1       0.155 -25.377  11.560  0.00  0.00    -0.361 OA
ATOM     37  H   UNL d   1      -0.358 -25.104  11.776  0.00  0.00     0.217 HD
ENDBRANCH  11  36
TORSDOF 9
ENDMDL
MODEL 5
REMARK VINA RESULT:    -8.220      1.874      3.644
REMARK INTER + INTRA:           1.331
REMARK INTER:                 -11.145
REMARK INTRA:                  12.475
REMARK UNBOUND:                12.434
REMARK  9 active torsions:
REMARK  status: ('A' for Active; 'I' for Inactive)
REMARK    1  A    between atoms: C_15  and  O_2 
REMARK    2  A    between atoms: O_2  and  C_17 
REMARK    3  A    between atoms: C_11  and  O_3 
REMARK    4  A    between atoms: C_12  and  O_4 
REMARK    5  A    between atoms: C_13  and  O_5 
REMARK    6  A    between atoms: O_8  and  C_23 
REMARK    7  A    between atoms: O_9  and  C_28 
REMARK    8  A    between atoms: O_10  and  C_31 
REMARK    9  A    between atoms: C_18  and  C_22 
ROOT
ATOM      1  O   UNL d   1       2.626 -30.827  11.538  0.00  0.00    -0.306 OA
ATOM      2  O   UNL d   1       0.785 -28.526  12.100  0.00  0.00    -0.284 OA
ATOM      3  C   UNL d   1       1.109 -30.228  12.120  0.00  0.00     0.157 A 
ATOM      4  C   UNL d   1       1.723 -30.994  11.933  0.00  0.00     0.123 A 
ATOM      5  C   UNL d   1       1.399 -29.293  11.913  0.00  0.00     0.223 A 
ATOM      6  C   UNL d   1       2.302 -29.126  11.518  0.00  0.00     0.084 A 
ATOM      7  C   UNL d   1       2.916 -29.893  11.331  0.00  0.00     0.096 A 
ATOM      8  C   UNL d   1       2.590 -28.147  11.308  0.00  0.00     0.085 A 
ATOM      9  C   UNL d   1       3.861 -29.734  10.921  0.00  0.00     0.075 A 
ATOM     10  C   UNL d   1       3.530 -27.964  10.897  0.00  0.00     0.074 A 
ATOM     11  C   UNL d   1       4.170 -28.763  10.702  0.00  0.00     0.071 A 
ENDROOT
BRANCH   3  12
ATOM     12  O   UNL d   1       0.205 -30.395  12.514  0.00  0.00    -0.311 OA
BRANCH  12  13
ATOM     13  C   UNL d   1       0.028 -30.168  13.472  0.00  0.00     0.298 A 
ATOM     14  O   UNL d   1       0.789 -30.071  14.112  0.00  0.00    -0.351 OA
ATOM     15  C   UNL d   1       0.612 -29.844  15.070  0.00  0.00     0.152 A 
ATOM     16  C   UNL d   1      -0.328 -29.714  15.387  0.00  0.00     0.178 A 
ATOM     17  C   UNL d   1       1.374 -29.747  15.710  0.00  0.00     0.042 C 
ATOM     18  C   UNL d   1      -1.089 -29.812  14.746  0.00  0.00     0.183 A 
ATOM     19  C   UNL d   1      -0.912 -30.039  13.789  0.00  0.00     0.205 A 
BRANCH  16  20
ATOM     20  O   UNL d   1      -0.505 -29.488  16.344  0.00  0.00    -0.390 OA
ATOM     21  H   UNL d   1      -0.590 -28.897  16.512  0.00  0.00     0.210 HD
ENDBRANCH  16  20
BRANCH  18  22
ATOM     22  O   UNL d   1      -2.029 -29.682  15.064  0.00  0.00    -0.390 OA
ATOM     23  H   UNL d   1      -2.504 -29.857  14.706  0.00  0.00     0.210 HD
ENDBRANCH  18  22
BRANCH  19  24
ATOM     24  O   UNL d   1      -1.674 -30.136  13.148  0.00  0.00    -0.388 OA
ATOM     25  H   UNL d   1      -1.576 -30.076  12.539  0.00  0.00     0.210 HD
ENDBRANCH  19  24
ENDBRANCH  12  13
ENDBRANCH   3  12
BRANCH   4  26
ATOM     26  C   UNL d   1       1.433 -31.929  12.140  0.00  0.00     0.001 A 
ATOM     27  C   UNL d   1       0.730 -32.370  11.582  0.00  0.00     0.017 A 
ATOM     28  C   UNL d   1       0.440 -33.304  11.789  0.00  0.00     0.037 A 
ATOM     29  C   UNL d   1       0.854 -33.798  12.554  0.00  0.00     0.065 A 
ATOM     30  C   UNL d   1       1.556 -33.357  13.112  0.00  0.00     0.037 A 
ATOM     31  C   UNL d   1       1.846 -32.422  12.905  0.00  0.00     0.017 A 
BRANCH  29  32
ATOM     32  O   UNL d   1       0.564 -34.732  12.761  0.00  0.00    -0.361 OA
ATOM     33  H   UNL d   1       0.606 -34.949  13.341  0.00  0.00     0.217 HD
ENDBRANCH  29  32
ENDBRANCH   4  26
BRANCH   8  34
ATOM     34  O   UNL d   1       1.968 -27.388  11.499  0.00  0.00    -0.360 OA
ATOM     35  H   UNL d   1       1.993 -26.872  11.155  0.00  0.00     0.217 HD
ENDBRANCH   8  34
BRANCH  11  36
ATOM     36  O   UNL d   1       5.074 -28.600  10.308  0.00  0.00    -0.361 OA
ATOM     37  H   UNL d   1       5.276 -28.951   9.838  0.00  0.00     0.217 HD
ENDBRANCH  11  36
TORSDOF 9
ENDMDL
