MODEL 1
REMARK VINA RESULT:    -5.806      0.000      0.000
REMARK INTER + INTRA:          -6.454
REMARK INTER:                  -7.468
REMARK INTRA:                   1.014
REMARK UNBOUND:                 0.880
REMARK  6 active torsions:
REMARK  status: ('A' for Active; 'I' for Inactive)
REMARK    1  A    between atoms: O_1  and  C_12 
REMARK    2  A    between atoms: O_1  and  C_13 
REMARK    3  A    between atoms: O_2  and  C_9 
REMARK    4  A    between atoms: O_3  and  C_10 
REMARK    5  A    between atoms: O_4  and  C_11 
REMARK    6  A    between atoms: C_6  and  C_12 
ROOT
ATOM      1  C   UNL d   1       4.325  -5.965  20.306  0.00  0.00     0.044 A 
ATOM      2  C   UNL d   1       3.815  -5.232  19.857  0.00  0.00     0.057 A 
ATOM      3  C   UNL d   1       5.299  -6.088  20.113  0.00  0.00     0.057 A 
ATOM      4  C   UNL d   1       5.762  -5.477  19.471  0.00  0.00     0.102 A 
ATOM      5  C   UNL d   1       4.279  -4.621  19.216  0.00  0.00     0.102 A 
ATOM      6  C   UNL d   1       5.252  -4.744  19.023  0.00  0.00     0.132 A 
ENDROOT
BRANCH   1   7
ATOM      7  C   UNL d   1       3.862  -6.576  20.948  0.00  0.00     0.293 C 
ATOM      8  O   UNL d   1       4.306  -6.829  21.807  0.00  0.00    -0.259 OA
BRANCH   7   9
ATOM      9  O   UNL d   1       2.954  -6.935  20.730  0.00  0.00    -0.318 OA
BRANCH   9  10
ATOM     10  C   UNL d   1       2.550  -7.653  21.297  0.00  0.00     0.174 C 
ATOM     11  C   UNL d   1       1.703  -8.100  21.010  0.00  0.00     0.034 C 
ENDBRANCH   9  10
ENDBRANCH   7   9
ENDBRANCH   1   7
BRANCH   5  12
ATOM     12  O   UNL d   1       3.769  -3.887  18.767  0.00  0.00    -0.358 OA
ATOM     13  H   UNL d   1       4.068  -3.467  18.422  0.00  0.00     0.217 HD
ENDBRANCH   5  12
BRANCH   4  14
ATOM     14  O   UNL d   1       6.736  -5.600  19.278  0.00  0.00    -0.358 OA
ATOM     15  H   UNL d   1       7.033  -6.102  19.490  0.00  0.00     0.217 HD
ENDBRANCH   4  14
BRANCH   6  16
ATOM     16  O   UNL d   1       5.716  -4.133  18.381  0.00  0.00    -0.356 OA
ATOM     17  H   UNL d   1       5.545  -3.538  18.340  0.00  0.00     0.218 HD
ENDBRANCH   6  16
TORSDOF 6
ENDMDL
MODEL 2
REMARK VINA RESULT:    -5.760     42.645     43.614
REMARK INTER + INTRA:          -6.395
REMARK INTER:                  -7.394
REMARK INTRA:                   0.999
REMARK UNBOUND:                 0.880
REMARK  6 active torsions:
REMARK  status: ('A' for Active; 'I' for Inactive)
REMARK    1  A    between atoms: O_1  and  C_12 
REMARK    2  A    between atoms: O_1  and  C_13 
REMARK    3  A    between atoms: O_2  and  C_9 
REMARK    4  A    between atoms: O_3  and  C_10 
REMARK    5  A    between atoms: O_4  and  C_11 
REMARK    6  A    between atoms: C_6  and  C_12 
ROOT
ATOM      1  C   UNL d   1      33.344 -38.398  23.926  0.00  0.00     0.044 A 
ATOM      2  C   UNL d   1      32.777 -37.598  23.727  0.00  0.00     0.057 A 
ATOM      3  C   UNL d   1      34.266 -38.465  23.544  0.00  0.00     0.057 A 
ATOM      4  C   UNL d   1      34.621 -37.732  22.964  0.00  0.00     0.102 A 
ATOM      5  C   UNL d   1      33.132 -36.866  23.146  0.00  0.00     0.102 A 
ATOM      6  C   UNL d   1      34.054 -36.932  22.765  0.00  0.00     0.132 A 
ENDROOT
BRANCH   1   7
ATOM      7  C   UNL d   1      32.989 -39.131  24.506  0.00  0.00     0.293 C 
ATOM      8  O   UNL d   1      33.556 -39.510  25.237  0.00  0.00    -0.259 OA
BRANCH   7   9
ATOM      9  O   UNL d   1      32.066 -39.485  24.355  0.00  0.00    -0.318 OA
BRANCH   9  10
ATOM     10  C   UNL d   1      31.795 -40.361  24.754  0.00  0.00     0.174 C 
ATOM     11  C   UNL d   1      30.901 -40.754  24.538  0.00  0.00     0.034 C 
ENDBRANCH   9  10
ENDBRANCH   7   9
ENDBRANCH   1   7
BRANCH   5  12
ATOM     12  O   UNL d   1      32.566 -36.066  22.947  0.00  0.00    -0.358 OA
ATOM     13  H   UNL d   1      32.713 -35.691  22.476  0.00  0.00     0.217 HD
ENDBRANCH   5  12
BRANCH   4  14
ATOM     14  O   UNL d   1      35.543 -37.798  22.583  0.00  0.00    -0.358 OA
ATOM     15  H   UNL d   1      35.756 -38.344  22.381  0.00  0.00     0.217 HD
ENDBRANCH   4  14
BRANCH   6  16
ATOM     16  O   UNL d   1      34.410 -36.199  22.185  0.00  0.00    -0.356 OA
ATOM     17  H   UNL d   1      34.796 -36.333  21.719  0.00  0.00     0.218 HD
ENDBRANCH   6  16
TORSDOF 6
ENDMDL
MODEL 3
REMARK VINA RESULT:    -5.736     26.199     27.265
REMARK INTER + INTRA:          -6.365
REMARK INTER:                  -7.327
REMARK INTRA:                   0.961
REMARK UNBOUND:                 0.880
REMARK  6 active torsions:
REMARK  status: ('A' for Active; 'I' for Inactive)
REMARK    1  A    between atoms: O_1  and  C_12 
REMARK    2  A    between atoms: O_1  and  C_13 
REMARK    3  A    between atoms: O_2  and  C_9 
REMARK    4  A    between atoms: O_3  and  C_10 
REMARK    5  A    between atoms: O_4  and  C_11 
REMARK    6  A    between atoms: C_6  and  C_12 
ROOT
ATOM      1  C   UNL d   1     -11.757  -3.219  41.395  0.00  0.00     0.044 A 
ATOM      2  C   UNL d   1     -11.773  -2.668  40.561  0.00  0.00     0.057 A 
ATOM      3  C   UNL d   1     -12.610  -3.571  41.779  0.00  0.00     0.057 A 
ATOM      4  C   UNL d   1     -13.481  -3.373  41.328  0.00  0.00     0.102 A 
ATOM      5  C   UNL d   1     -12.644  -2.470  40.110  0.00  0.00     0.102 A 
ATOM      6  C   UNL d   1     -13.497  -2.822  40.493  0.00  0.00     0.132 A 
ENDROOT
BRANCH   1   7
ATOM      7  C   UNL d   1     -10.886  -3.418  41.846  0.00  0.00     0.293 C 
ATOM      8  O   UNL d   1     -10.167  -3.905  41.351  0.00  0.00    -0.259 OA
BRANCH   7   9
ATOM      9  O   UNL d   1     -10.736  -3.129  42.791  0.00  0.00    -0.318 OA
BRANCH   9  10
ATOM     10  C   UNL d   1      -9.931  -3.451  43.290  0.00  0.00     0.174 C 
ATOM     11  C   UNL d   1      -9.779  -3.160  44.234  0.00  0.00     0.034 C 
ENDBRANCH   9  10
ENDBRANCH   7   9
ENDBRANCH   1   7
BRANCH   5  12
ATOM     12  O   UNL d   1     -12.660  -1.919  39.275  0.00  0.00    -0.358 OA
ATOM     13  H   UNL d   1     -12.812  -2.180  38.734  0.00  0.00     0.217 HD
ENDBRANCH   5  12
BRANCH   4  14
ATOM     14  O   UNL d   1     -14.334  -3.725  41.711  0.00  0.00    -0.358 OA
ATOM     15  H   UNL d   1     -14.558  -4.271  41.520  0.00  0.00     0.217 HD
ENDBRANCH   4  14
BRANCH   6  16
ATOM     16  O   UNL d   1     -14.367  -2.623  40.043  0.00  0.00    -0.356 OA
ATOM     17  H   UNL d   1     -14.874  -2.950  40.189  0.00  0.00     0.218 HD
ENDBRANCH   6  16
TORSDOF 6
ENDMDL
MODEL 4
REMARK VINA RESULT:    -5.696     12.046     12.980
REMARK INTER + INTRA:          -6.315
REMARK INTER:                  -7.217
REMARK INTRA:                   0.902
REMARK UNBOUND:                 0.880
REMARK  6 active torsions:
REMARK  status: ('A' for Active; 'I' for Inactive)
REMARK    1  A    between atoms: O_1  and  C_12 
REMARK    2  A    between atoms: O_1  and  C_13 
REMARK    3  A    between atoms: O_2  and  C_9 
REMARK    4  A    between atoms: O_3  and  C_10 
REMARK    5  A    between atoms: O_4  and  C_11 
REMARK    6  A    between atoms: C_6  and  C_12 
ROOT
ATOM      1  C   UNL d   1       1.535 -15.196  27.693  0.00  0.00     0.044 A 
ATOM      2  C   UNL d   1       0.842 -14.501  27.505  0.00  0.00     0.057 A 
ATOM      3  C   UNL d   1       1.310 -16.166  27.599  0.00  0.00     0.057 A 
ATOM      4  C   UNL d   1       0.391 -16.441  27.317  0.00  0.00     0.102 A 
ATOM      5  C   UNL d   1      -0.078 -14.776  27.223  0.00  0.00     0.102 A 
ATOM      6  C   UNL d   1      -0.303 -15.745  27.129  0.00  0.00     0.132 A 
ENDROOT
BRANCH   1   7
ATOM      7  C   UNL d   1       2.455 -14.922  27.976  0.00  0.00     0.293 C 
ATOM      8  O   UNL d   1       3.236 -15.104  27.379  0.00  0.00    -0.259 OA
BRANCH   7   9
ATOM      9  O   UNL d   1       2.592 -14.465  28.854  0.00  0.00    -0.318 OA
BRANCH   9  10
ATOM     10  C   UNL d   1       3.519 -14.283  29.184  0.00  0.00     0.174 C 
ATOM     11  C   UNL d   1       3.657 -13.833  30.066  0.00  0.00     0.034 C 
ENDBRANCH   9  10
ENDBRANCH   7   9
ENDBRANCH   1   7
BRANCH   5  12
ATOM     12  O   UNL d   1      -0.771 -14.081  27.035  0.00  0.00    -0.358 OA
ATOM     13  H   UNL d   1      -1.300 -14.075  27.358  0.00  0.00     0.217 HD
ENDBRANCH   5  12
BRANCH   4  14
ATOM     14  O   UNL d   1       0.165 -17.410  27.223  0.00  0.00    -0.358 OA
ATOM     15  H   UNL d   1       0.087 -17.657  26.660  0.00  0.00     0.217 HD
ENDBRANCH   4  14
BRANCH   6  16
ATOM     16  O   UNL d   1      -1.222 -16.020  26.847  0.00  0.00    -0.356 OA
ATOM     17  H   UNL d   1      -1.371 -16.621  26.818  0.00  0.00     0.218 HD
ENDBRANCH   6  16
TORSDOF 6
ENDMDL
MODEL 5
REMARK VINA RESULT:    -5.690     11.888     12.811
REMARK INTER + INTRA:          -6.308
REMARK INTER:                  -7.183
REMARK INTRA:                   0.875
REMARK UNBOUND:                 0.880
REMARK  6 active torsions:
REMARK  status: ('A' for Active; 'I' for Inactive)
REMARK    1  A    between atoms: O_1  and  C_12 
REMARK    2  A    between atoms: O_1  and  C_13 
REMARK    3  A    between atoms: O_2  and  C_9 
REMARK    4  A    between atoms: O_3  and  C_10 
REMARK    5  A    between atoms: O_4  and  C_11 
REMARK    6  A    between atoms: C_6  and  C_12 
ROOT
ATOM      1  C   UNL d   1      -0.589 -14.968  26.696  0.00  0.00     0.044 A 
ATOM      2  C   UNL d   1      -0.565 -15.962  26.796  0.00  0.00     0.057 A 
ATOM      3  C   UNL d   1       0.186 -14.416  27.002  0.00  0.00     0.057 A 
ATOM      4  C   UNL d   1       0.986 -14.858  27.407  0.00  0.00     0.102 A 
ATOM      5  C   UNL d   1       0.234 -16.405  27.201  0.00  0.00     0.102 A 
ATOM      6  C   UNL d   1       1.010 -15.853  27.507  0.00  0.00     0.132 A 
ENDROOT
BRANCH   1   7
ATOM      7  C   UNL d   1      -1.389 -14.525  26.291  0.00  0.00     0.293 C 
ATOM      8  O   UNL d   1      -1.497 -14.500  25.297  0.00  0.00    -0.259 OA
BRANCH   7   9
ATOM      9  O   UNL d   1      -2.081 -14.107  26.879  0.00  0.00    -0.318 OA
BRANCH   9  10
ATOM     10  C   UNL d   1      -2.935 -13.769  26.484  0.00  0.00     0.174 C 
ATOM     11  C   UNL d   1      -3.652 -13.404  27.079  0.00  0.00     0.034 C 
ENDBRANCH   9  10
ENDBRANCH   7   9
ENDBRANCH   1   7
BRANCH   5  12
ATOM     12  O   UNL d   1       0.259 -17.400  27.301  0.00  0.00    -0.358 OA
ATOM     13  H   UNL d   1      -0.269 -17.725  27.293  0.00  0.00     0.217 HD
ENDBRANCH   5  12
BRANCH   4  14
ATOM     14  O   UNL d   1       1.762 -14.306  27.713  0.00  0.00    -0.358 OA
ATOM     15  H   UNL d   1       1.883 -13.764  27.439  0.00  0.00     0.217 HD
ENDBRANCH   4  14
BRANCH   6  16
ATOM     16  O   UNL d   1       1.810 -16.296  27.912  0.00  0.00    -0.356 OA
ATOM     17  H   UNL d   1       2.364 -16.246  27.639  0.00  0.00     0.218 HD
ENDBRANCH   6  16
TORSDOF 6
ENDMDL
