MODEL 1
REMARK VINA RESULT:    -2.551      0.000      0.000
REMARK INTER + INTRA:          -2.551
REMARK INTER:                  -2.551
REMARK INTRA:                   0.000
REMARK UNBOUND:                 0.000
REMARK  0 active torsions:
REMARK  status: ('A' for Active; 'I' for Inactive)
ROOT
ATOM      1  O   UNL d   1     -17.509  13.731   7.294  0.00  0.00    -0.648 OA
ATOM      2  O   UNL d   1     -16.069  14.128   8.171  0.00  0.00    -0.648 OA
ATOM      3  C   UNL d   1     -16.332  14.793   6.594  0.00  0.00     0.129 C 
ATOM      4  C   UNL d   1     -16.637  14.217   7.353  0.00  0.00     0.168 C 
ENDROOT
TORSDOF 0
ENDMDL
MODEL 2
REMARK VINA RESULT:    -2.214      9.704      9.991
REMARK INTER + INTRA:          -2.214
REMARK INTER:                  -2.214
REMARK INTRA:                   0.000
REMARK UNBOUND:                 0.000
REMARK  0 active torsions:
REMARK  status: ('A' for Active; 'I' for Inactive)
ROOT
ATOM      1  O   UNL d   1     -14.115  20.967  12.743  0.00  0.00    -0.648 OA
ATOM      2  O   UNL d   1     -14.739  21.878  14.077  0.00  0.00    -0.648 OA
ATOM      3  C   UNL d   1     -13.053  21.488  14.008  0.00  0.00     0.129 C 
ATOM      4  C   UNL d   1     -13.969  21.444  13.609  0.00  0.00     0.168 C 
ENDROOT
TORSDOF 0
ENDMDL
MODEL 3
REMARK VINA RESULT:    -2.186      1.849      2.295
REMARK INTER + INTRA:          -2.186
REMARK INTER:                  -2.186
REMARK INTRA:                   0.000
REMARK UNBOUND:                 0.000
REMARK  0 active torsions:
REMARK  status: ('A' for Active; 'I' for Inactive)
ROOT
ATOM      1  O   UNL d   1     -16.315  13.355   5.546  0.00  0.00    -0.648 OA
ATOM      2  O   UNL d   1     -17.122  14.664   4.749  0.00  0.00    -0.648 OA
ATOM      3  C   UNL d   1     -16.533  14.866   6.366  0.00  0.00     0.129 C 
ATOM      4  C   UNL d   1     -16.657  14.295   5.554  0.00  0.00     0.168 C 
ENDROOT
TORSDOF 0
ENDMDL
MODEL 4
REMARK VINA RESULT:    -2.037     15.911     16.069
REMARK INTER + INTRA:          -2.037
REMARK INTER:                  -2.037
REMARK INTRA:                   0.000
REMARK UNBOUND:                 0.000
REMARK  0 active torsions:
REMARK  status: ('A' for Active; 'I' for Inactive)
ROOT
ATOM      1  O   UNL d   1      -6.739  21.911  17.440  0.00  0.00    -0.648 OA
ATOM      2  O   UNL d   1      -6.408  23.238  16.377  0.00  0.00    -0.648 OA
ATOM      3  C   UNL d   1      -7.993  23.039  17.046  0.00  0.00     0.129 C 
ATOM      4  C   UNL d   1      -7.047  22.729  16.954  0.00  0.00     0.168 C 
ENDROOT
TORSDOF 0
ENDMDL
MODEL 5
REMARK VINA RESULT:    -1.922     23.061     23.473
REMARK INTER + INTRA:          -1.922
REMARK INTER:                  -1.922
REMARK INTRA:                   0.000
REMARK UNBOUND:                 0.000
REMARK  0 active torsions:
REMARK  status: ('A' for Active; 'I' for Inactive)
ROOT
ATOM      1  O   UNL d   1      -4.108  31.597   0.604  0.00  0.00    -0.648 OA
ATOM      2  O   UNL d   1      -3.734  33.277   0.412  0.00  0.00    -0.648 OA
ATOM      3  C   UNL d   1      -2.814  32.082  -0.441  0.00  0.00     0.129 C 
ATOM      4  C   UNL d   1      -3.552  32.318   0.192  0.00  0.00     0.168 C 
ENDROOT
TORSDOF 0
ENDMDL
