MODEL 1
REMARK VINA RESULT:    -6.344      0.000      0.000
REMARK INTER + INTRA:          -3.145
REMARK INTER:                  -8.224
REMARK INTRA:                   5.079
REMARK UNBOUND:                 5.053
REMARK  6 active torsions:
REMARK  status: ('A' for Active; 'I' for Inactive)
REMARK    1  A    between atoms: O_2  and  C_15 
REMARK    2  A    between atoms: O_3  and  C_17 
REMARK    3  A    between atoms: O_4  and  C_11 
REMARK    4  A    between atoms: O_6  and  C_22 
REMARK    5  A    between atoms: O_7  and  C_20 
REMARK    6  A    between atoms: C_10  and  C_13 
ROOT
ATOM      1  O   UNL d   1      -1.685  11.482   6.632  0.00  0.00    -0.309 OA
ATOM      2  O   UNL d   1      -0.638  13.746   4.844  0.00  0.00    -0.287 OA
ATOM      3  C   UNL d   1      -0.572  12.840   6.362  0.00  0.00     0.084 A 
ATOM      4  C   UNL d   1      -0.910  12.103   6.948  0.00  0.00     0.096 A 
ATOM      5  C   UNL d   1      -2.113  11.631   5.694  0.00  0.00     0.090 A 
ATOM      6  C   UNL d   1       0.173  13.428   6.679  0.00  0.00     0.119 A 
ATOM      7  C   UNL d   1      -0.985  13.006   5.421  0.00  0.00     0.190 A 
ATOM      8  C   UNL d   1      -0.504  11.954   7.849  0.00  0.00     0.078 A 
ATOM      9  C   UNL d   1       0.579  13.279   7.580  0.00  0.00     0.136 A 
ATOM     10  C   UNL d   1      -1.760  12.399   5.084  0.00  0.00     0.094 A 
ATOM     11  C   UNL d   1       0.240  12.542   8.166  0.00  0.00     0.107 A 
ENDROOT
BRANCH   5  12
ATOM     12  C   UNL d   1      -2.857  11.042   5.381  0.00  0.00     0.001 A 
ATOM     13  C   UNL d   1      -3.740  11.059   5.851  0.00  0.00     0.053 A 
ATOM     14  C   UNL d   1      -4.485  10.470   5.538  0.00  0.00     0.099 A 
ATOM     15  C   UNL d   1      -4.347   9.862   4.756  0.00  0.00     0.101 A 
ATOM     16  C   UNL d   1      -3.464   9.845   4.286  0.00  0.00     0.040 A 
ATOM     17  C   UNL d   1      -2.720  10.434   4.599  0.00  0.00     0.017 A 
BRANCH  14  18
ATOM     18  O   UNL d   1      -5.368  10.487   6.007  0.00  0.00    -0.358 OA
ATOM     19  H   UNL d   1      -5.833  10.828   5.781  0.00  0.00     0.217 HD
ENDBRANCH  14  18
BRANCH  15  20
ATOM     20  O   UNL d   1      -5.091   9.273   4.443  0.00  0.00    -0.353 OA
ATOM     21  C   UNL d   1      -4.949   8.655   3.670  0.00  0.00     0.210 C 
ENDBRANCH  15  20
ENDBRANCH   5  12
BRANCH   6  22
ATOM     22  O   UNL d   1       0.511  14.164   6.093  0.00  0.00    -0.357 OA
ATOM     23  H   UNL d   1       0.462  14.754   6.277  0.00  0.00     0.218 HD
ENDBRANCH   6  22
BRANCH  11  24
ATOM     24  O   UNL d   1       0.646  12.394   9.067  0.00  0.00    -0.353 OA
ATOM     25  C   UNL d   1       0.197  11.788   9.724  0.00  0.00     0.210 C 
ENDBRANCH  11  24
BRANCH   9  26
ATOM     26  O   UNL d   1       1.323  13.867   7.896  0.00  0.00    -0.351 OA
ATOM     27  C   UNL d   1       2.252  13.725   7.554  0.00  0.00     0.210 C 
ENDBRANCH   9  26
TORSDOF 6
ENDMDL
MODEL 2
REMARK VINA RESULT:    -6.281      4.323      6.342
REMARK INTER + INTRA:          -3.063
REMARK INTER:                  -8.198
REMARK INTRA:                   5.135
REMARK UNBOUND:                 5.053
REMARK  6 active torsions:
REMARK  status: ('A' for Active; 'I' for Inactive)
REMARK    1  A    between atoms: O_2  and  C_15 
REMARK    2  A    between atoms: O_3  and  C_17 
REMARK    3  A    between atoms: O_4  and  C_11 
REMARK    4  A    between atoms: O_6  and  C_22 
REMARK    5  A    between atoms: O_7  and  C_20 
REMARK    6  A    between atoms: C_10  and  C_13 
ROOT
ATOM      1  O   UNL d   1       1.094  13.351  10.440  0.00  0.00    -0.309 OA
ATOM      2  O   UNL d   1      -1.634  11.945  10.399  0.00  0.00    -0.287 OA
ATOM      3  C   UNL d   1      -0.348  12.765  11.296  0.00  0.00     0.084 A 
ATOM      4  C   UNL d   1       0.540  13.224  11.314  0.00  0.00     0.096 A 
ATOM      5  C   UNL d   1       0.717  12.995   9.537  0.00  0.00     0.090 A 
ATOM      6  C   UNL d   1      -0.868  12.651  12.142  0.00  0.00     0.119 A 
ATOM      7  C   UNL d   1      -0.744  12.402  10.404  0.00  0.00     0.190 A 
ATOM      8  C   UNL d   1       0.909  13.568  12.177  0.00  0.00     0.078 A 
ATOM      9  C   UNL d   1      -0.500  12.995  13.006  0.00  0.00     0.136 A 
ATOM     10  C   UNL d   1      -0.209  12.517   9.519  0.00  0.00     0.094 A 
ATOM     11  C   UNL d   1       0.388  13.453  13.024  0.00  0.00     0.107 A 
ENDROOT
BRANCH   5  12
ATOM     12  C   UNL d   1       1.240  13.111   8.693  0.00  0.00     0.001 A 
ATOM     13  C   UNL d   1       0.848  13.625   7.929  0.00  0.00     0.053 A 
ATOM     14  C   UNL d   1       1.371  13.742   7.084  0.00  0.00     0.099 A 
ATOM     15  C   UNL d   1       2.285  13.344   7.003  0.00  0.00     0.101 A 
ATOM     16  C   UNL d   1       2.676  12.830   7.767  0.00  0.00     0.040 A 
ATOM     17  C   UNL d   1       2.154  12.714   8.611  0.00  0.00     0.017 A 
BRANCH  14  18
ATOM     18  O   UNL d   1       0.980  14.256   6.321  0.00  0.00    -0.358 OA
ATOM     19  H   UNL d   1       1.273  14.271   5.775  0.00  0.00     0.217 HD
ENDBRANCH  14  18
BRANCH  15  20
ATOM     20  O   UNL d   1       2.808  13.460   6.159  0.00  0.00    -0.353 OA
ATOM     21  C   UNL d   1       3.796  13.312   6.158  0.00  0.00     0.210 C 
ENDBRANCH  15  20
ENDBRANCH   5  12
BRANCH   6  22
ATOM     22  O   UNL d   1      -1.757  12.192  12.125  0.00  0.00    -0.357 OA
ATOM     23  H   UNL d   1      -1.937  11.847  12.608  0.00  0.00     0.218 HD
ENDBRANCH   6  22
BRANCH  11  24
ATOM     24  O   UNL d   1       0.757  13.797  13.887  0.00  0.00    -0.353 OA
ATOM     25  C   UNL d   1       1.675  14.192  13.917  0.00  0.00     0.210 C 
ENDBRANCH  11  24
BRANCH   9  26
ATOM     26  O   UNL d   1      -1.021  12.880  13.852  0.00  0.00    -0.351 OA
ATOM     27  C   UNL d   1      -0.960  12.023  14.365  0.00  0.00     0.210 C 
ENDBRANCH   9  26
TORSDOF 6
ENDMDL
MODEL 3
REMARK VINA RESULT:    -6.255     15.150     17.949
REMARK INTER + INTRA:          -3.030
REMARK INTER:                  -8.472
REMARK INTRA:                   5.442
REMARK UNBOUND:                 5.053
REMARK  6 active torsions:
REMARK  status: ('A' for Active; 'I' for Inactive)
REMARK    1  A    between atoms: O_2  and  C_15 
REMARK    2  A    between atoms: O_3  and  C_17 
REMARK    3  A    between atoms: O_4  and  C_11 
REMARK    4  A    between atoms: O_6  and  C_22 
REMARK    5  A    between atoms: O_7  and  C_20 
REMARK    6  A    between atoms: C_10  and  C_13 
ROOT
ATOM      1  O   UNL d   1     -18.250  16.237   3.262  0.00  0.00    -0.309 OA
ATOM      2  O   UNL d   1     -18.136  18.691   5.101  0.00  0.00    -0.287 OA
ATOM      3  C   UNL d   1     -18.594  17.954   3.559  0.00  0.00     0.084 A 
ATOM      4  C   UNL d   1     -18.633  17.156   2.957  0.00  0.00     0.096 A 
ATOM      5  C   UNL d   1     -17.821  16.147   4.207  0.00  0.00     0.090 A 
ATOM      6  C   UNL d   1     -18.966  18.830   3.252  0.00  0.00     0.119 A 
ATOM      7  C   UNL d   1     -18.169  17.887   4.507  0.00  0.00     0.190 A 
ATOM      8  C   UNL d   1     -19.044  17.235   2.049  0.00  0.00     0.078 A 
ATOM      9  C   UNL d   1     -19.376  18.909   2.344  0.00  0.00     0.136 A 
ATOM     10  C   UNL d   1     -17.780  16.978   4.834  0.00  0.00     0.094 A 
ATOM     11  C   UNL d   1     -19.415  18.111   1.742  0.00  0.00     0.107 A 
ENDROOT
BRANCH   5  12
ATOM     12  C   UNL d   1     -17.451  15.270   4.511  0.00  0.00     0.001 A 
ATOM     13  C   UNL d   1     -16.930  15.215   5.363  0.00  0.00     0.053 A 
ATOM     14  C   UNL d   1     -16.559  14.337   5.667  0.00  0.00     0.099 A 
ATOM     15  C   UNL d   1     -16.709  13.514   5.119  0.00  0.00     0.101 A 
ATOM     16  C   UNL d   1     -17.229  13.569   4.266  0.00  0.00     0.040 A 
ATOM     17  C   UNL d   1     -17.600  14.447   3.963  0.00  0.00     0.017 A 
BRANCH  14  18
ATOM     18  O   UNL d   1     -16.039  14.281   6.519  0.00  0.00    -0.358 OA
ATOM     19  H   UNL d   1     -16.060  14.747   6.927  0.00  0.00     0.217 HD
ENDBRANCH  14  18
BRANCH  15  20
ATOM     20  O   UNL d   1     -16.338  12.637   5.422  0.00  0.00    -0.353 OA
ATOM     21  C   UNL d   1     -16.107  11.932   4.751  0.00  0.00     0.210 C 
ENDBRANCH  15  20
ENDBRANCH   5  12
BRANCH   6  22
ATOM     22  O   UNL d   1     -18.926  19.628   3.854  0.00  0.00    -0.357 OA
ATOM     23  H   UNL d   1     -18.378  19.872   4.010  0.00  0.00     0.218 HD
ENDBRANCH   6  22
BRANCH  11  24
ATOM     24  O   UNL d   1     -19.826  18.190   0.834  0.00  0.00    -0.353 OA
ATOM     25  C   UNL d   1     -19.937  17.376   0.263  0.00  0.00     0.210 C 
ENDBRANCH  11  24
BRANCH   9  26
ATOM     26  O   UNL d   1     -19.748  19.785   2.037  0.00  0.00    -0.351 OA
ATOM     27  C   UNL d   1     -19.132  20.502   1.709  0.00  0.00     0.210 C 
ENDBRANCH   9  26
TORSDOF 6
ENDMDL
MODEL 4
REMARK VINA RESULT:    -6.206      1.456      2.694
REMARK INTER + INTRA:          -2.967
REMARK INTER:                  -8.127
REMARK INTRA:                   5.160
REMARK UNBOUND:                 5.053
REMARK  6 active torsions:
REMARK  status: ('A' for Active; 'I' for Inactive)
REMARK    1  A    between atoms: O_2  and  C_15 
REMARK    2  A    between atoms: O_3  and  C_17 
REMARK    3  A    between atoms: O_4  and  C_11 
REMARK    4  A    between atoms: O_6  and  C_22 
REMARK    5  A    between atoms: O_7  and  C_20 
REMARK    6  A    between atoms: C_10  and  C_13 
ROOT
ATOM      1  O   UNL d   1      -2.267  11.330   6.609  0.00  0.00    -0.309 OA
ATOM      2  O   UNL d   1      -2.870   9.860   9.235  0.00  0.00    -0.287 OA
ATOM      3  C   UNL d   1      -1.910  11.034   8.324  0.00  0.00     0.084 A 
ATOM      4  C   UNL d   1      -1.710  11.515   7.471  0.00  0.00     0.096 A 
ATOM      5  C   UNL d   1      -3.041  10.633   6.638  0.00  0.00     0.090 A 
ATOM      6  C   UNL d   1      -1.367  11.223   9.143  0.00  0.00     0.119 A 
ATOM      7  C   UNL d   1      -2.679  10.335   8.376  0.00  0.00     0.190 A 
ATOM      8  C   UNL d   1      -0.968  12.185   7.435  0.00  0.00     0.078 A 
ATOM      9  C   UNL d   1      -0.625  11.893   9.108  0.00  0.00     0.136 A 
ATOM     10  C   UNL d   1      -3.249  10.132   7.528  0.00  0.00     0.094 A 
ATOM     11  C   UNL d   1      -0.426  12.374   8.254  0.00  0.00     0.107 A 
ENDROOT
BRANCH   5  12
ATOM     12  C   UNL d   1      -3.581  10.447   5.818  0.00  0.00     0.001 A 
ATOM     13  C   UNL d   1      -4.579  10.501   5.854  0.00  0.00     0.053 A 
ATOM     14  C   UNL d   1      -5.120  10.315   5.034  0.00  0.00     0.099 A 
ATOM     15  C   UNL d   1      -4.663  10.075   4.178  0.00  0.00     0.101 A 
ATOM     16  C   UNL d   1      -3.665  10.021   4.142  0.00  0.00     0.040 A 
ATOM     17  C   UNL d   1      -3.125  10.207   4.962  0.00  0.00     0.017 A 
BRANCH  14  18
ATOM     18  O   UNL d   1      -6.118  10.368   5.069  0.00  0.00    -0.358 OA
ATOM     19  H   UNL d   1      -6.404  10.909   4.971  0.00  0.00     0.217 HD
ENDBRANCH  14  18
BRANCH  15  20
ATOM     20  O   UNL d   1      -5.203   9.888   3.357  0.00  0.00    -0.353 OA
ATOM     21  C   UNL d   1      -4.801   9.377   2.598  0.00  0.00     0.210 C 
ENDBRANCH  15  20
ENDBRANCH   5  12
BRANCH   6  22
ATOM     22  O   UNL d   1      -1.567  10.742   9.997  0.00  0.00    -0.357 OA
ATOM     23  H   UNL d   1      -1.244  10.236  10.150  0.00  0.00     0.218 HD
ENDBRANCH   6  22
BRANCH  11  24
ATOM     24  O   UNL d   1       0.316  13.043   8.219  0.00  0.00    -0.353 OA
ATOM     25  C   UNL d   1       0.538  13.499   7.357  0.00  0.00     0.210 C 
ENDBRANCH  11  24
BRANCH   9  26
ATOM     26  O   UNL d   1      -0.083  12.082   9.926  0.00  0.00    -0.351 OA
ATOM     27  C   UNL d   1      -0.448  12.677  10.642  0.00  0.00     0.210 C 
ENDBRANCH   9  26
TORSDOF 6
ENDMDL
MODEL 5
REMARK VINA RESULT:    -6.190     21.536     23.178
REMARK INTER + INTRA:          -2.946
REMARK INTER:                  -7.949
REMARK INTRA:                   5.002
REMARK UNBOUND:                 5.053
REMARK  6 active torsions:
REMARK  status: ('A' for Active; 'I' for Inactive)
REMARK    1  A    between atoms: O_2  and  C_15 
REMARK    2  A    between atoms: O_3  and  C_17 
REMARK    3  A    between atoms: O_4  and  C_11 
REMARK    4  A    between atoms: O_6  and  C_22 
REMARK    5  A    between atoms: O_7  and  C_20 
REMARK    6  A    between atoms: C_10  and  C_13 
ROOT
ATOM      1  O   UNL d   1      -4.693  34.331   1.181  0.00  0.00    -0.309 OA
ATOM      2  O   UNL d   1      -4.264  31.300   0.959  0.00  0.00    -0.287 OA
ATOM      3  C   UNL d   1      -3.958  32.937   0.360  0.00  0.00     0.084 A 
ATOM      4  C   UNL d   1      -4.096  33.925   0.429  0.00  0.00     0.096 A 
ATOM      5  C   UNL d   1      -5.152  33.699   1.869  0.00  0.00     0.090 A 
ATOM      6  C   UNL d   1      -3.383  32.562  -0.366  0.00  0.00     0.119 A 
ATOM      7  C   UNL d   1      -4.408  32.287   1.038  0.00  0.00     0.190 A 
ATOM      8  C   UNL d   1      -3.657  34.538  -0.228  0.00  0.00     0.078 A 
ATOM      9  C   UNL d   1      -2.944  33.175  -1.024  0.00  0.00     0.136 A 
ATOM     10  C   UNL d   1      -5.009  32.669   1.797  0.00  0.00     0.094 A 
ATOM     11  C   UNL d   1      -3.082  34.163  -0.954  0.00  0.00     0.107 A 
ENDROOT
BRANCH   5  12
ATOM     12  C   UNL d   1      -5.727  34.077   2.594  0.00  0.00     0.001 A 
ATOM     13  C   UNL d   1      -6.706  34.210   2.438  0.00  0.00     0.053 A 
ATOM     14  C   UNL d   1      -7.282  34.589   3.163  0.00  0.00     0.099 A 
ATOM     15  C   UNL d   1      -6.878  34.834   4.044  0.00  0.00     0.101 A 
ATOM     16  C   UNL d   1      -5.899  34.700   4.201  0.00  0.00     0.040 A 
ATOM     17  C   UNL d   1      -5.324  34.322   3.476  0.00  0.00     0.017 A 
BRANCH  14  18
ATOM     18  O   UNL d   1      -8.260  34.723   3.007  0.00  0.00    -0.358 OA
ATOM     19  H   UNL d   1      -8.455  35.046   2.516  0.00  0.00     0.217 HD
ENDBRANCH  14  18
BRANCH  15  20
ATOM     20  O   UNL d   1      -7.453  35.212   4.770  0.00  0.00    -0.353 OA
ATOM     21  C   UNL d   1      -7.078  35.348   5.686  0.00  0.00     0.210 C 
ENDBRANCH  15  20
ENDBRANCH   5  12
BRANCH   6  22
ATOM     22  O   UNL d   1      -3.245  31.574  -0.435  0.00  0.00    -0.357 OA
ATOM     23  H   UNL d   1      -3.199  31.305  -0.992  0.00  0.00     0.218 HD
ENDBRANCH   6  22
BRANCH  11  24
ATOM     24  O   UNL d   1      -2.644  34.776  -1.612  0.00  0.00    -0.353 OA
ATOM     25  C   UNL d   1      -2.934  35.731  -1.676  0.00  0.00     0.210 C 
ENDBRANCH  11  24
BRANCH   9  26
ATOM     26  O   UNL d   1      -2.369  32.800  -1.750  0.00  0.00    -0.351 OA
ATOM     27  C   UNL d   1      -1.427  32.530  -1.552  0.00  0.00     0.210 C 
ENDBRANCH   9  26
TORSDOF 6
ENDMDL
