MODEL 1
REMARK VINA RESULT:    -6.416      0.000      0.000
REMARK INTER + INTRA:           2.084
REMARK INTER:                 -11.833
REMARK INTRA:                  13.917
REMARK UNBOUND:                14.502
REMARK  19 active torsions:
REMARK  status: ('A' for Active; 'I' for Inactive)
REMARK    1  A    between atoms: C_13  and  O_1 
REMARK    2  A    between atoms: O_1  and  C_17 
REMARK    3  A    between atoms: C_14  and  O_2 
REMARK    4  A    between atoms: O_2  and  C_18 
REMARK    5  A    between atoms: O_3  and  C_15 
REMARK    6  A    between atoms: O_4  and  C_16 
REMARK    7  A    between atoms: O_9  and  C_29 
REMARK    8  A    between atoms: O_10  and  C_30 
REMARK    9  A    between atoms: O_11  and  C_33 
REMARK   10  A    between atoms: O_12  and  C_34 
REMARK   11  A    between atoms: C_13  and  C_14 
REMARK   12  A    between atoms: C_13  and  C_15 
REMARK   13  A    between atoms: C_14  and  C_16 
REMARK   14  A    between atoms: C_17  and  C_21 
REMARK   15  A    between atoms: C_18  and  C_22 
REMARK   16  A    between atoms: C_19  and  C_23 
REMARK   17  A    between atoms: C_20  and  C_24 
REMARK   18  A    between atoms: C_21  and  C_23 
REMARK   19  A    between atoms: C_22  and  C_24 
ROOT
ATOM      1  C   UNL d   1      -4.186   9.490   5.897  0.00  0.00     0.269 C 
ENDROOT
BRANCH   1   2
ATOM      2  O   UNL d   1      -3.436   9.512   5.235  0.00  0.00    -0.299 OA
BRANCH   2   3
ATOM      3  C   UNL d   1      -3.324  10.303   4.633  0.00  0.00     0.283 C 
ATOM      4  O   UNL d   1      -3.739  10.301   3.723  0.00  0.00    -0.260 OA
BRANCH   3   5
ATOM      5  C   UNL d   1      -2.798  11.095   4.940  0.00  0.00     0.083 C 
BRANCH   5   6
ATOM      6  C   UNL d   1      -1.907  11.293   4.532  0.00  0.00     0.017 C 
BRANCH   6   7
ATOM      7  C   UNL d   1      -1.326  12.008   4.920  0.00  0.00    -0.033 A 
ATOM      8  C   UNL d   1      -1.494  12.967   4.691  0.00  0.00     0.050 A 
ATOM      9  C   UNL d   1      -0.914  13.683   5.079  0.00  0.00     0.099 A 
ATOM     10  C   UNL d   1      -0.165  13.440   5.696  0.00  0.00     0.098 A 
ATOM     11  C   UNL d   1       0.003  12.482   5.925  0.00  0.00     0.040 A 
ATOM     12  C   UNL d   1      -0.578  11.766   5.537  0.00  0.00     0.014 A 
BRANCH   9  13
ATOM     13  O   UNL d   1      -1.082  14.642   4.849  0.00  0.00    -0.358 OA
ATOM     14  H   UNL d   1      -1.016  14.837   4.265  0.00  0.00     0.217 HD
ENDBRANCH   9  13
BRANCH  10  15
ATOM     15  O   UNL d   1       0.415  14.156   6.084  0.00  0.00    -0.358 OA
ATOM     16  H   UNL d   1       0.826  14.016   6.527  0.00  0.00     0.217 HD
ENDBRANCH  10  15
ENDBRANCH   6   7
ENDBRANCH   5   6
ENDBRANCH   3   5
ENDBRANCH   2   3
ENDBRANCH   1   2
BRANCH   1  17
ATOM     17  C   UNL d   1      -4.031   9.131   6.817  0.00  0.00     0.269 C 
BRANCH  17  18
ATOM     18  O   UNL d   1      -3.727   9.742   7.547  0.00  0.00    -0.299 OA
BRANCH  18  19
ATOM     19  C   UNL d   1      -2.786   9.693   7.882  0.00  0.00     0.283 C 
ATOM     20  O   UNL d   1      -2.259   8.851   7.770  0.00  0.00    -0.260 OA
BRANCH  19  21
ATOM     21  C   UNL d   1      -2.371  10.487   8.327  0.00  0.00     0.083 C 
BRANCH  21  22
ATOM     22  C   UNL d   1      -1.819  10.365   9.152  0.00  0.00     0.017 C 
BRANCH  22  23
ATOM     23  C   UNL d   1      -1.209  11.097   9.457  0.00  0.00    -0.033 A 
ATOM     24  C   UNL d   1      -1.544  11.796  10.089  0.00  0.00     0.050 A 
ATOM     25  C   UNL d   1      -0.934  12.527  10.395  0.00  0.00     0.099 A 
ATOM     26  C   UNL d   1       0.011  12.559  10.068  0.00  0.00     0.098 A 
ATOM     27  C   UNL d   1       0.346  11.860   9.436  0.00  0.00     0.040 A 
ATOM     28  C   UNL d   1      -0.264  11.129   9.131  0.00  0.00     0.014 A 
BRANCH  25  29
ATOM     29  O   UNL d   1      -1.268  13.226  11.027  0.00  0.00    -0.358 OA
ATOM     30  H   UNL d   1      -1.688  13.640  10.837  0.00  0.00     0.217 HD
ENDBRANCH  25  29
BRANCH  26  31
ATOM     31  O   UNL d   1       0.621  13.291  10.374  0.00  0.00    -0.358 OA
ATOM     32  H   UNL d   1       1.044  13.523   9.985  0.00  0.00     0.217 HD
ENDBRANCH  26  31
ENDBRANCH  22  23
ENDBRANCH  21  22
ENDBRANCH  19  21
ENDBRANCH  18  19
ENDBRANCH  17  18
BRANCH  17  33
ATOM     33  C   UNL d   1      -4.179   8.160   7.006  0.00  0.00     0.173 C 
ATOM     34  O   UNL d   1      -4.798   7.883   7.741  0.00  0.00    -0.648 OA
BRANCH  33  35
ATOM     35  O   UNL d   1      -3.707   7.467   6.461  0.00  0.00    -0.774 OA
ATOM     36  H   UNL d   1      -3.153   7.592   6.212  0.00  0.00     0.167 HD
ENDBRANCH  33  35
ENDBRANCH  17  33
ENDBRANCH   1  17
BRANCH   1  37
ATOM     37  C   UNL d   1      -5.091   9.827   5.638  0.00  0.00     0.173 C 
ATOM     38  O   UNL d   1      -5.660   9.299   5.007  0.00  0.00    -0.648 OA
BRANCH  37  39
ATOM     39  O   UNL d   1      -5.428  10.692   6.010  0.00  0.00    -0.774 OA
ATOM     40  H   UNL d   1      -5.778  10.694   6.521  0.00  0.00     0.167 HD
ENDBRANCH  37  39
ENDBRANCH   1  37
TORSDOF 19
ENDMDL
MODEL 2
REMARK VINA RESULT:    -6.403      1.327      3.853
REMARK INTER + INTRA:           2.110
REMARK INTER:                 -10.576
REMARK INTRA:                  12.686
REMARK UNBOUND:                14.502
REMARK  19 active torsions:
REMARK  status: ('A' for Active; 'I' for Inactive)
REMARK    1  A    between atoms: C_13  and  O_1 
REMARK    2  A    between atoms: O_1  and  C_17 
REMARK    3  A    between atoms: C_14  and  O_2 
REMARK    4  A    between atoms: O_2  and  C_18 
REMARK    5  A    between atoms: O_3  and  C_15 
REMARK    6  A    between atoms: O_4  and  C_16 
REMARK    7  A    between atoms: O_9  and  C_29 
REMARK    8  A    between atoms: O_10  and  C_30 
REMARK    9  A    between atoms: O_11  and  C_33 
REMARK   10  A    between atoms: O_12  and  C_34 
REMARK   11  A    between atoms: C_13  and  C_14 
REMARK   12  A    between atoms: C_13  and  C_15 
REMARK   13  A    between atoms: C_14  and  C_16 
REMARK   14  A    between atoms: C_17  and  C_21 
REMARK   15  A    between atoms: C_18  and  C_22 
REMARK   16  A    between atoms: C_19  and  C_23 
REMARK   17  A    between atoms: C_20  and  C_24 
REMARK   18  A    between atoms: C_21  and  C_23 
REMARK   19  A    between atoms: C_22  and  C_24 
ROOT
ATOM      1  C   UNL d   1      -3.319  10.045   5.967  0.00  0.00     0.269 C 
ENDROOT
BRANCH   1   2
ATOM      2  O   UNL d   1      -2.760   9.591   6.661  0.00  0.00    -0.299 OA
BRANCH   2   3
ATOM      3  C   UNL d   1      -2.922   9.775   7.631  0.00  0.00     0.283 C 
ATOM      4  O   UNL d   1      -3.677   9.323   8.106  0.00  0.00    -0.260 OA
BRANCH   3   5
ATOM      5  C   UNL d   1      -2.328  10.410   8.125  0.00  0.00     0.083 C 
BRANCH   5   6
ATOM      6  C   UNL d   1      -2.032  10.195   9.056  0.00  0.00     0.017 C 
BRANCH   6   7
ATOM      7  C   UNL d   1      -1.352  10.771   9.509  0.00  0.00    -0.033 A 
ATOM      8  C   UNL d   1      -1.601  11.688   9.820  0.00  0.00     0.050 A 
ATOM      9  C   UNL d   1      -0.921  12.265  10.274  0.00  0.00     0.099 A 
ATOM     10  C   UNL d   1       0.008  11.924  10.416  0.00  0.00     0.098 A 
ATOM     11  C   UNL d   1       0.258  11.007  10.104  0.00  0.00     0.040 A 
ATOM     12  C   UNL d   1      -0.422  10.431   9.651  0.00  0.00     0.014 A 
BRANCH   9  13
ATOM     13  O   UNL d   1      -1.170  13.182  10.585  0.00  0.00    -0.358 OA
ATOM     14  H   UNL d   1      -1.200  13.306  11.192  0.00  0.00     0.217 HD
ENDBRANCH   9  13
BRANCH  10  15
ATOM     15  O   UNL d   1       0.688  12.500  10.869  0.00  0.00    -0.358 OA
ATOM     16  H   UNL d   1       0.518  12.873  11.334  0.00  0.00     0.217 HD
ENDBRANCH  10  15
ENDBRANCH   6   7
ENDBRANCH   5   6
ENDBRANCH   3   5
ENDBRANCH   2   3
ENDBRANCH   1   2
BRANCH   1  17
ATOM     17  C   UNL d   1      -2.880  10.506   5.195  0.00  0.00     0.269 C 
BRANCH  17  18
ATOM     18  O   UNL d   1      -2.612  11.466   5.273  0.00  0.00    -0.299 OA
BRANCH  18  19
ATOM     19  C   UNL d   1      -1.748  11.778   4.878  0.00  0.00     0.283 C 
ATOM     20  O   UNL d   1      -1.702  12.031   3.912  0.00  0.00    -0.260 OA
BRANCH  19  21
ATOM     21  C   UNL d   1      -0.929  11.836   5.449  0.00  0.00     0.083 C 
BRANCH  21  22
ATOM     22  C   UNL d   1      -0.698  12.696   5.905  0.00  0.00     0.017 C 
BRANCH  22  23
ATOM     23  C   UNL d   1       0.149  12.771   6.431  0.00  0.00    -0.033 A 
ATOM     24  C   UNL d   1       0.330  13.590   6.975  0.00  0.00     0.050 A 
ATOM     25  C   UNL d   1       1.177  13.665   7.500  0.00  0.00     0.099 A 
ATOM     26  C   UNL d   1       1.845  12.921   7.481  0.00  0.00     0.098 A 
ATOM     27  C   UNL d   1       1.664  12.101   6.937  0.00  0.00     0.040 A 
ATOM     28  C   UNL d   1       0.817  12.026   6.412  0.00  0.00     0.014 A 
BRANCH  25  29
ATOM     29  O   UNL d   1       1.358  14.485   8.044  0.00  0.00    -0.358 OA
ATOM     30  H   UNL d   1       1.232  15.045   7.811  0.00  0.00     0.217 HD
ENDBRANCH  25  29
BRANCH  26  31
ATOM     31  O   UNL d   1       2.692  12.996   8.007  0.00  0.00    -0.358 OA
ATOM     32  H   UNL d   1       3.231  13.092   7.714  0.00  0.00     0.217 HD
ENDBRANCH  26  31
ENDBRANCH  22  23
ENDBRANCH  21  22
ENDBRANCH  19  21
ENDBRANCH  18  19
ENDBRANCH  17  18
BRANCH  17  33
ATOM     33  C   UNL d   1      -2.710  10.007   4.345  0.00  0.00     0.173 C 
ATOM     34  O   UNL d   1      -3.283  10.176   3.543  0.00  0.00    -0.648 OA
BRANCH  33  35
ATOM     35  O   UNL d   1      -1.967   9.339   4.298  0.00  0.00    -0.774 OA
ATOM     36  H   UNL d   1      -1.481   9.442   3.928  0.00  0.00     0.167 HD
ENDBRANCH  33  35
ENDBRANCH  17  33
ENDBRANCH   1  17
BRANCH   1  37
ATOM     37  C   UNL d   1      -4.316  10.038   6.044  0.00  0.00     0.173 C 
ATOM     38  O   UNL d   1      -4.820   9.181   5.934  0.00  0.00    -0.648 OA
BRANCH  37  39
ATOM     39  O   UNL d   1      -4.809  10.888   6.231  0.00  0.00    -0.774 OA
ATOM     40  H   UNL d   1      -4.533  11.342   6.550  0.00  0.00     0.167 HD
ENDBRANCH  37  39
ENDBRANCH   1  37
TORSDOF 19
ENDMDL
MODEL 3
REMARK VINA RESULT:    -6.327      3.146      7.381
REMARK INTER + INTRA:           2.258
REMARK INTER:                 -10.212
REMARK INTRA:                  12.469
REMARK UNBOUND:                14.502
REMARK  19 active torsions:
REMARK  status: ('A' for Active; 'I' for Inactive)
REMARK    1  A    between atoms: C_13  and  O_1 
REMARK    2  A    between atoms: O_1  and  C_17 
REMARK    3  A    between atoms: C_14  and  O_2 
REMARK    4  A    between atoms: O_2  and  C_18 
REMARK    5  A    between atoms: O_3  and  C_15 
REMARK    6  A    between atoms: O_4  and  C_16 
REMARK    7  A    between atoms: O_9  and  C_29 
REMARK    8  A    between atoms: O_10  and  C_30 
REMARK    9  A    between atoms: O_11  and  C_33 
REMARK   10  A    between atoms: O_12  and  C_34 
REMARK   11  A    between atoms: C_13  and  C_14 
REMARK   12  A    between atoms: C_13  and  C_15 
REMARK   13  A    between atoms: C_14  and  C_16 
REMARK   14  A    between atoms: C_17  and  C_21 
REMARK   15  A    between atoms: C_18  and  C_22 
REMARK   16  A    between atoms: C_19  and  C_23 
REMARK   17  A    between atoms: C_20  and  C_24 
REMARK   18  A    between atoms: C_21  and  C_23 
REMARK   19  A    between atoms: C_22  and  C_24 
ROOT
ATOM      1  C   UNL d   1      -3.155   9.725   5.860  0.00  0.00     0.269 C 
ENDROOT
BRANCH   1   2
ATOM      2  O   UNL d   1      -3.473   8.837   6.191  0.00  0.00    -0.299 OA
BRANCH   2   3
ATOM      3  C   UNL d   1      -4.291   8.780   6.763  0.00  0.00     0.283 C 
ATOM      4  O   UNL d   1      -4.215   8.870   7.756  0.00  0.00    -0.260 OA
BRANCH   3   5
ATOM      5  C   UNL d   1      -5.186   8.632   6.342  0.00  0.00     0.083 C 
BRANCH   5   6
ATOM      6  C   UNL d   1      -5.722   7.821   6.577  0.00  0.00     0.017 C 
BRANCH   6   7
ATOM      7  C   UNL d   1      -6.568   7.621   6.082  0.00  0.00    -0.033 A 
ATOM      8  C   UNL d   1      -7.409   8.112   6.310  0.00  0.00     0.050 A 
ATOM      9  C   UNL d   1      -8.254   7.911   5.815  0.00  0.00     0.099 A 
ATOM     10  C   UNL d   1      -8.259   7.219   5.094  0.00  0.00     0.098 A 
ATOM     11  C   UNL d   1      -7.418   6.727   4.866  0.00  0.00     0.040 A 
ATOM     12  C   UNL d   1      -6.572   6.928   5.361  0.00  0.00     0.014 A 
BRANCH   9  13
ATOM     13  O   UNL d   1      -9.095   8.402   6.043  0.00  0.00    -0.358 OA
ATOM     14  H   UNL d   1      -9.432   8.663   5.593  0.00  0.00     0.217 HD
ENDBRANCH   9  13
BRANCH  10  15
ATOM     15  O   UNL d   1      -9.105   7.018   4.599  0.00  0.00    -0.358 OA
ATOM     16  H   UNL d   1      -9.589   6.774   4.900  0.00  0.00     0.217 HD
ENDBRANCH  10  15
ENDBRANCH   6   7
ENDBRANCH   5   6
ENDBRANCH   3   5
ENDBRANCH   2   3
ENDBRANCH   1   2
BRANCH   1  17
ATOM     17  C   UNL d   1      -2.649   9.786   5.000  0.00  0.00     0.269 C 
BRANCH  17  18
ATOM     18  O   UNL d   1      -3.118  10.070   4.163  0.00  0.00    -0.299 OA
BRANCH  18  19
ATOM     19  C   UNL d   1      -3.335   9.395   3.458  0.00  0.00     0.283 C 
ATOM     20  O   UNL d   1      -2.598   8.917   2.980  0.00  0.00    -0.260 OA
BRANCH  19  21
ATOM     21  C   UNL d   1      -4.289   9.197   3.232  0.00  0.00     0.083 C 
BRANCH  21  22
ATOM     22  C   UNL d   1      -4.851   9.894   2.786  0.00  0.00     0.017 C 
BRANCH  22  23
ATOM     23  C   UNL d   1      -5.832   9.740   2.662  0.00  0.00    -0.033 A 
ATOM     24  C   UNL d   1      -6.492  10.329   3.127  0.00  0.00     0.050 A 
ATOM     25  C   UNL d   1      -7.473  10.176   3.003  0.00  0.00     0.099 A 
ATOM     26  C   UNL d   1      -7.792   9.434   2.414  0.00  0.00     0.098 A 
ATOM     27  C   UNL d   1      -7.132   8.846   1.948  0.00  0.00     0.040 A 
ATOM     28  C   UNL d   1      -6.151   8.999   2.072  0.00  0.00     0.014 A 
BRANCH  25  29
ATOM     29  O   UNL d   1      -8.134  10.764   3.469  0.00  0.00    -0.358 OA
ATOM     30  H   UNL d   1      -8.704  10.554   3.592  0.00  0.00     0.217 HD
ENDBRANCH  25  29
BRANCH  26  31
ATOM     31  O   UNL d   1      -8.773   9.281   2.289  0.00  0.00    -0.358 OA
ATOM     32  H   UNL d   1      -9.180   9.709   2.479  0.00  0.00     0.217 HD
ENDBRANCH  26  31
ENDBRANCH  22  23
ENDBRANCH  21  22
ENDBRANCH  19  21
ENDBRANCH  18  19
ENDBRANCH  17  18
BRANCH  17  33
ATOM     33  C   UNL d   1      -1.675   9.564   4.976  0.00  0.00     0.173 C 
ATOM     34  O   UNL d   1      -1.019  10.227   4.614  0.00  0.00    -0.648 OA
BRANCH  33  35
ATOM     35  O   UNL d   1      -1.355   8.678   5.313  0.00  0.00    -0.774 OA
ATOM     36  H   UNL d   1      -1.764   8.233   5.451  0.00  0.00     0.167 HD
ENDBRANCH  33  35
ENDBRANCH  17  33
ENDBRANCH   1  17
BRANCH   1  37
ATOM     37  C   UNL d   1      -3.343  10.552   6.390  0.00  0.00     0.173 C 
ATOM     38  O   UNL d   1      -2.721  10.830   7.122  0.00  0.00    -0.648 OA
BRANCH  37  39
ATOM     39  O   UNL d   1      -4.153  11.102   6.187  0.00  0.00    -0.774 OA
ATOM     40  H   UNL d   1      -4.527  10.942   5.719  0.00  0.00     0.167 HD
ENDBRANCH  37  39
ENDBRANCH   1  37
TORSDOF 19
ENDMDL
MODEL 4
REMARK VINA RESULT:    -6.309      2.769      6.391
REMARK INTER + INTRA:           2.292
REMARK INTER:                 -10.456
REMARK INTRA:                  12.748
REMARK UNBOUND:                14.502
REMARK  19 active torsions:
REMARK  status: ('A' for Active; 'I' for Inactive)
REMARK    1  A    between atoms: C_13  and  O_1 
REMARK    2  A    between atoms: O_1  and  C_17 
REMARK    3  A    between atoms: C_14  and  O_2 
REMARK    4  A    between atoms: O_2  and  C_18 
REMARK    5  A    between atoms: O_3  and  C_15 
REMARK    6  A    between atoms: O_4  and  C_16 
REMARK    7  A    between atoms: O_9  and  C_29 
REMARK    8  A    between atoms: O_10  and  C_30 
REMARK    9  A    between atoms: O_11  and  C_33 
REMARK   10  A    between atoms: O_12  and  C_34 
REMARK   11  A    between atoms: C_13  and  C_14 
REMARK   12  A    between atoms: C_13  and  C_15 
REMARK   13  A    between atoms: C_14  and  C_16 
REMARK   14  A    between atoms: C_17  and  C_21 
REMARK   15  A    between atoms: C_18  and  C_22 
REMARK   16  A    between atoms: C_19  and  C_23 
REMARK   17  A    between atoms: C_20  and  C_24 
REMARK   18  A    between atoms: C_21  and  C_23 
REMARK   19  A    between atoms: C_22  and  C_24 
ROOT
ATOM      1  C   UNL d   1      -2.791  10.107   5.962  0.00  0.00     0.269 C 
ENDROOT
BRANCH   1   2
ATOM      2  O   UNL d   1      -2.866   9.665   5.068  0.00  0.00    -0.299 OA
BRANCH   2   3
ATOM      3  C   UNL d   1      -3.282  10.154   4.301  0.00  0.00     0.283 C 
ATOM      4  O   UNL d   1      -2.726  10.764   3.736  0.00  0.00    -0.260 OA
BRANCH   3   5
ATOM      5  C   UNL d   1      -4.253  10.033   4.099  0.00  0.00     0.083 C 
BRANCH   5   6
ATOM      6  C   UNL d   1      -4.569  10.019   3.150  0.00  0.00     0.017 C 
BRANCH   6   7
ATOM      7  C   UNL d   1      -5.535   9.862   2.947  0.00  0.00    -0.033 A 
ATOM      8  C   UNL d   1      -6.233  10.462   3.338  0.00  0.00     0.050 A 
ATOM      9  C   UNL d   1      -7.199  10.304   3.135  0.00  0.00     0.099 A 
ATOM     10  C   UNL d   1      -7.468   9.547   2.540  0.00  0.00     0.098 A 
ATOM     11  C   UNL d   1      -6.770   8.947   2.148  0.00  0.00     0.040 A 
ATOM     12  C   UNL d   1      -5.804   9.104   2.352  0.00  0.00     0.014 A 
BRANCH   9  13
ATOM     13  O   UNL d   1      -7.897  10.904   3.526  0.00  0.00    -0.358 OA
ATOM     14  H   UNL d   1      -7.871  11.060   4.126  0.00  0.00     0.217 HD
ENDBRANCH   9  13
BRANCH  10  15
ATOM     15  O   UNL d   1      -8.434   9.389   2.336  0.00  0.00    -0.358 OA
ATOM     16  H   UNL d   1      -8.793   9.095   2.747  0.00  0.00     0.217 HD
ENDBRANCH  10  15
ENDBRANCH   6   7
ENDBRANCH   5   6
ENDBRANCH   3   5
ENDBRANCH   2   3
ENDBRANCH   1   2
BRANCH   1  17
ATOM     17  C   UNL d   1      -2.978   9.587   6.795  0.00  0.00     0.269 C 
BRANCH  17  18
ATOM     18  O   UNL d   1      -3.908   9.546   7.161  0.00  0.00    -0.299 OA
BRANCH  18  19
ATOM     19  C   UNL d   1      -4.384   8.669   7.218  0.00  0.00     0.283 C 
ATOM     20  O   UNL d   1      -4.088   7.981   7.882  0.00  0.00    -0.260 OA
BRANCH  19  21
ATOM     21  C   UNL d   1      -5.157   8.479   6.612  0.00  0.00     0.083 C 
BRANCH  21  22
ATOM     22  C   UNL d   1      -5.787   7.732   6.825  0.00  0.00     0.017 C 
BRANCH  22  23
ATOM     23  C   UNL d   1      -6.598   7.586   6.258  0.00  0.00    -0.033 A 
ATOM     24  C   UNL d   1      -7.436   8.099   6.444  0.00  0.00     0.050 A 
ATOM     25  C   UNL d   1      -8.247   7.953   5.878  0.00  0.00     0.099 A 
ATOM     26  C   UNL d   1      -8.221   7.294   5.126  0.00  0.00     0.098 A 
ATOM     27  C   UNL d   1      -7.383   6.781   4.941  0.00  0.00     0.040 A 
ATOM     28  C   UNL d   1      -6.572   6.927   5.507  0.00  0.00     0.014 A 
BRANCH  25  29
ATOM     29  O   UNL d   1      -9.085   8.466   6.063  0.00  0.00    -0.358 OA
ATOM     30  H   UNL d   1      -9.066   9.084   6.113  0.00  0.00     0.217 HD
ENDBRANCH  25  29
BRANCH  26  31
ATOM     31  O   UNL d   1      -9.032   7.148   4.560  0.00  0.00    -0.358 OA
ATOM     32  H   UNL d   1      -9.229   6.572   4.442  0.00  0.00     0.217 HD
ENDBRANCH  26  31
ENDBRANCH  22  23
ENDBRANCH  21  22
ENDBRANCH  19  21
ENDBRANCH  18  19
ENDBRANCH  17  18
BRANCH  17  33
ATOM     33  C   UNL d   1      -2.235   9.107   7.261  0.00  0.00     0.173 C 
ATOM     34  O   UNL d   1      -1.990   9.356   8.198  0.00  0.00    -0.648 OA
BRANCH  33  35
ATOM     35  O   UNL d   1      -1.738   8.377   6.791  0.00  0.00    -0.774 OA
ATOM     36  H   UNL d   1      -2.026   8.031   6.365  0.00  0.00     0.167 HD
ENDBRANCH  33  35
ENDBRANCH  17  33
ENDBRANCH   1  17
BRANCH   1  37
ATOM     37  C   UNL d   1      -2.530  11.071   6.022  0.00  0.00     0.173 C 
ATOM     38  O   UNL d   1      -1.578  11.341   5.875  0.00  0.00    -0.648 OA
BRANCH  37  39
ATOM     39  O   UNL d   1      -3.220  11.764   6.231  0.00  0.00    -0.774 OA
ATOM     40  H   UNL d   1      -3.818  11.604   6.270  0.00  0.00     0.167 HD
ENDBRANCH  37  39
ENDBRANCH   1  37
TORSDOF 19
ENDMDL
MODEL 5
REMARK VINA RESULT:    -6.287     12.680     14.411
REMARK INTER + INTRA:           2.334
REMARK INTER:                 -12.161
REMARK INTRA:                  14.495
REMARK UNBOUND:                14.502
REMARK  19 active torsions:
REMARK  status: ('A' for Active; 'I' for Inactive)
REMARK    1  A    between atoms: C_13  and  O_1 
REMARK    2  A    between atoms: O_1  and  C_17 
REMARK    3  A    between atoms: C_14  and  O_2 
REMARK    4  A    between atoms: O_2  and  C_18 
REMARK    5  A    between atoms: O_3  and  C_15 
REMARK    6  A    between atoms: O_4  and  C_16 
REMARK    7  A    between atoms: O_9  and  C_29 
REMARK    8  A    between atoms: O_10  and  C_30 
REMARK    9  A    between atoms: O_11  and  C_33 
REMARK   10  A    between atoms: O_12  and  C_34 
REMARK   11  A    between atoms: C_13  and  C_14 
REMARK   12  A    between atoms: C_13  and  C_15 
REMARK   13  A    between atoms: C_14  and  C_16 
REMARK   14  A    between atoms: C_17  and  C_21 
REMARK   15  A    between atoms: C_18  and  C_22 
REMARK   16  A    between atoms: C_19  and  C_23 
REMARK   17  A    between atoms: C_20  and  C_24 
REMARK   18  A    between atoms: C_21  and  C_23 
REMARK   19  A    between atoms: C_22  and  C_24 
ROOT
ATOM      1  C   UNL d   1     -12.429  15.899  15.916  0.00  0.00     0.269 C 
ENDROOT
BRANCH   1   2
ATOM      2  O   UNL d   1     -12.495  16.883  16.079  0.00  0.00    -0.299 OA
BRANCH   2   3
ATOM      3  C   UNL d   1     -12.252  17.528  15.354  0.00  0.00     0.283 C 
ATOM      4  O   UNL d   1     -11.397  17.413  14.850  0.00  0.00    -0.260 OA
BRANCH   3   5
ATOM      5  C   UNL d   1     -12.865  18.287  15.134  0.00  0.00     0.083 C 
BRANCH   5   6
ATOM      6  C   UNL d   1     -12.682  19.199  15.499  0.00  0.00     0.017 C 
BRANCH   6   7
ATOM      7  C   UNL d   1     -13.221  19.981  15.184  0.00  0.00    -0.033 A 
ATOM      8  C   UNL d   1     -12.904  20.525  14.407  0.00  0.00     0.050 A 
ATOM      9  C   UNL d   1     -13.443  21.307  14.092  0.00  0.00     0.099 A 
ATOM     10  C   UNL d   1     -14.297  21.544  14.554  0.00  0.00     0.098 A 
ATOM     11  C   UNL d   1     -14.613  21.000  15.331  0.00  0.00     0.040 A 
ATOM     12  C   UNL d   1     -14.075  20.218  15.646  0.00  0.00     0.014 A 
BRANCH   9  13
ATOM     13  O   UNL d   1     -13.126  21.852  13.316  0.00  0.00    -0.358 OA
ATOM     14  H   UNL d   1     -12.619  22.204  13.370  0.00  0.00     0.217 HD
ENDBRANCH   9  13
BRANCH  10  15
ATOM     15  O   UNL d   1     -14.835  22.326  14.240  0.00  0.00    -0.358 OA
ATOM     16  H   UNL d   1     -14.578  22.750  13.867  0.00  0.00     0.217 HD
ENDBRANCH  10  15
ENDBRANCH   6   7
ENDBRANCH   5   6
ENDBRANCH   3   5
ENDBRANCH   2   3
ENDBRANCH   1   2
BRANCH   1  17
ATOM     17  C   UNL d   1     -11.842  15.335  16.497  0.00  0.00     0.269 C 
BRANCH  17  18
ATOM     18  O   UNL d   1     -10.852  15.331  16.354  0.00  0.00    -0.299 OA
BRANCH  18  19
ATOM     19  C   UNL d   1     -10.235  15.479  17.127  0.00  0.00     0.283 C 
ATOM     20  O   UNL d   1     -10.421  16.210  17.783  0.00  0.00    -0.260 OA
BRANCH  19  21
ATOM     21  C   UNL d   1      -9.432  14.895  17.244  0.00  0.00     0.083 C 
BRANCH  21  22
ATOM     22  C   UNL d   1      -8.592  15.272  17.635  0.00  0.00     0.017 C 
BRANCH  22  23
ATOM     23  C   UNL d   1      -7.702  14.969  17.294  0.00  0.00    -0.033 A 
ATOM     24  C   UNL d   1      -7.589  14.037  16.950  0.00  0.00     0.050 A 
ATOM     25  C   UNL d   1      -6.699  13.735  16.609  0.00  0.00     0.099 A 
ATOM     26  C   UNL d   1      -5.922  14.364  16.613  0.00  0.00     0.098 A 
ATOM     27  C   UNL d   1      -6.035  15.296  16.958  0.00  0.00     0.040 A 
ATOM     28  C   UNL d   1      -6.925  15.598  17.298  0.00  0.00     0.014 A 
BRANCH  25  29
ATOM     29  O   UNL d   1      -6.586  12.803  16.264  0.00  0.00    -0.358 OA
ATOM     30  H   UNL d   1      -7.026  12.548  15.910  0.00  0.00     0.217 HD
ENDBRANCH  25  29
BRANCH  26  31
ATOM     31  O   UNL d   1      -5.032  14.061  16.272  0.00  0.00    -0.358 OA
ATOM     32  H   UNL d   1      -4.811  13.504  16.433  0.00  0.00     0.217 HD
ENDBRANCH  26  31
ENDBRANCH  22  23
ENDBRANCH  21  22
ENDBRANCH  19  21
ENDBRANCH  18  19
ENDBRANCH  17  18
BRANCH  17  33
ATOM     33  C   UNL d   1     -12.245  14.774  17.221  0.00  0.00     0.173 C 
ATOM     34  O   UNL d   1     -12.155  13.779  17.190  0.00  0.00    -0.648 OA
BRANCH  33  35
ATOM     35  O   UNL d   1     -12.737  15.209  17.974  0.00  0.00    -0.774 OA
ATOM     36  H   UNL d   1     -12.464  15.274  18.527  0.00  0.00     0.167 HD
ENDBRANCH  33  35
ENDBRANCH  17  33
ENDBRANCH   1  17
BRANCH   1  37
ATOM     37  C   UNL d   1     -12.949  15.479  15.173  0.00  0.00     0.173 C 
ATOM     38  O   UNL d   1     -13.946  15.555  15.155  0.00  0.00    -0.648 OA
BRANCH  37  39
ATOM     39  O   UNL d   1     -12.472  14.983  14.447  0.00  0.00    -0.774 OA
ATOM     40  H   UNL d   1     -12.154  15.295  14.016  0.00  0.00     0.167 HD
ENDBRANCH  37  39
ENDBRANCH   1  37
TORSDOF 19
ENDMDL
