MODEL 1
REMARK VINA RESULT:    -7.007      0.000      0.000
REMARK INTER + INTRA:          -6.820
REMARK INTER:                  -8.250
REMARK INTRA:                   1.431
REMARK UNBOUND:                 1.006
REMARK  3 active torsions:
REMARK  status: ('A' for Active; 'I' for Inactive)
REMARK    1  A    between atoms: O_2  and  C_10 
REMARK    2  A    between atoms: O_4  and  C_13 
REMARK    3  A    between atoms: C_7  and  C_9 
ROOT
ATOM      1  O   UNL d   1     -17.379  15.877   5.058  0.00  0.00    -0.309 OA
ATOM      2  O   UNL d   1     -17.556  13.342   3.464  0.00  0.00    -0.287 OA
ATOM      3  C   UNL d   1     -17.054  14.184   4.892  0.00  0.00     0.081 A 
ATOM      4  C   UNL d   1     -16.995  15.029   5.423  0.00  0.00     0.095 A 
ATOM      5  C   UNL d   1     -17.822  15.880   4.161  0.00  0.00     0.090 A 
ATOM      6  C   UNL d   1     -17.497  14.187   3.995  0.00  0.00     0.190 A 
ATOM      7  C   UNL d   1     -16.659  13.294   5.259  0.00  0.00     0.085 A 
ATOM      8  C   UNL d   1     -17.881  15.035   3.630  0.00  0.00     0.094 A 
ATOM      9  C   UNL d   1     -16.537  15.042   6.359  0.00  0.00     0.075 A 
ATOM     10  C   UNL d   1     -16.135  14.163   6.746  0.00  0.00     0.071 A 
ATOM     11  C   UNL d   1     -16.196  13.283   6.192  0.00  0.00     0.074 A 
ENDROOT
BRANCH   5  12
ATOM     12  C   UNL d   1     -18.206  16.728   3.796  0.00  0.00    -0.002 A 
ATOM     13  C   UNL d   1     -18.743  16.712   2.953  0.00  0.00     0.014 A 
ATOM     14  C   UNL d   1     -19.127  17.560   2.588  0.00  0.00     0.001 A 
ATOM     15  C   UNL d   1     -18.974  18.425   3.066  0.00  0.00     0.000 A 
ATOM     16  C   UNL d   1     -18.437  18.441   3.909  0.00  0.00     0.001 A 
ATOM     17  C   UNL d   1     -18.053  17.593   4.274  0.00  0.00     0.014 A 
ENDBRANCH   5  12
BRANCH   7  18
ATOM     18  O   UNL d   1     -16.724  12.455   4.719  0.00  0.00    -0.360 OA
ATOM     19  H   UNL d   1     -16.612  11.906   4.985  0.00  0.00     0.217 HD
ENDBRANCH   7  18
BRANCH  10  20
ATOM     20  O   UNL d   1     -15.693  14.164   7.643  0.00  0.00    -0.361 OA
ATOM     21  H   UNL d   1     -15.222  14.552   7.755  0.00  0.00     0.217 HD
ENDBRANCH  10  20
TORSDOF 3
ENDMDL
MODEL 2
REMARK VINA RESULT:    -6.953      1.590      4.522
REMARK INTER + INTRA:          -6.759
REMARK INTER:                  -8.190
REMARK INTRA:                   1.431
REMARK UNBOUND:                 1.006
REMARK  3 active torsions:
REMARK  status: ('A' for Active; 'I' for Inactive)
REMARK    1  A    between atoms: O_2  and  C_10 
REMARK    2  A    between atoms: O_4  and  C_13 
REMARK    3  A    between atoms: C_7  and  C_9 
ROOT
ATOM      1  O   UNL d   1     -17.638  16.506   4.624  0.00  0.00    -0.309 OA
ATOM      2  O   UNL d   1     -19.039  15.534   2.156  0.00  0.00    -0.287 OA
ATOM      3  C   UNL d   1     -18.579  16.832   3.207  0.00  0.00     0.081 A 
ATOM      4  C   UNL d   1     -18.112  17.155   4.030  0.00  0.00     0.095 A 
ATOM      5  C   UNL d   1     -17.632  15.532   4.396  0.00  0.00     0.090 A 
ATOM      6  C   UNL d   1     -18.572  15.858   2.979  0.00  0.00     0.190 A 
ATOM      7  C   UNL d   1     -19.076  17.497   2.578  0.00  0.00     0.085 A 
ATOM      8  C   UNL d   1     -18.099  15.208   3.573  0.00  0.00     0.094 A 
ATOM      9  C   UNL d   1     -18.109  18.167   4.281  0.00  0.00     0.075 A 
ATOM     10  C   UNL d   1     -18.601  18.849   3.666  0.00  0.00     0.071 A 
ATOM     11  C   UNL d   1     -19.087  18.512   2.809  0.00  0.00     0.074 A 
ENDROOT
BRANCH   5  12
ATOM     12  C   UNL d   1     -17.158  14.882   4.991  0.00  0.00    -0.002 A 
ATOM     13  C   UNL d   1     -17.066  13.926   4.713  0.00  0.00     0.014 A 
ATOM     14  C   UNL d   1     -16.592  13.276   5.308  0.00  0.00     0.001 A 
ATOM     15  C   UNL d   1     -16.211  13.583   6.180  0.00  0.00     0.000 A 
ATOM     16  C   UNL d   1     -16.303  14.539   6.458  0.00  0.00     0.001 A 
ATOM     17  C   UNL d   1     -16.777  15.189   5.863  0.00  0.00     0.014 A 
ENDBRANCH   5  12
BRANCH   7  18
ATOM     18  O   UNL d   1     -19.539  17.161   1.758  0.00  0.00    -0.360 OA
ATOM     19  H   UNL d   1     -19.841  17.558   1.389  0.00  0.00     0.217 HD
ENDBRANCH   7  18
BRANCH  10  20
ATOM     20  O   UNL d   1     -18.605  19.822   3.898  0.00  0.00    -0.361 OA
ATOM     21  H   UNL d   1     -18.276  20.223   3.558  0.00  0.00     0.217 HD
ENDBRANCH  10  20
TORSDOF 3
ENDMDL
MODEL 3
REMARK VINA RESULT:    -6.723      2.449      4.289
REMARK INTER + INTRA:          -6.503
REMARK INTER:                  -7.518
REMARK INTRA:                   1.015
REMARK UNBOUND:                 1.006
REMARK  3 active torsions:
REMARK  status: ('A' for Active; 'I' for Inactive)
REMARK    1  A    between atoms: O_2  and  C_10 
REMARK    2  A    between atoms: O_4  and  C_13 
REMARK    3  A    between atoms: C_7  and  C_9 
ROOT
ATOM      1  O   UNL d   1     -17.559  12.223   4.900  0.00  0.00    -0.309 OA
ATOM      2  O   UNL d   1     -14.989  11.098   3.839  0.00  0.00    -0.287 OA
ATOM      3  C   UNL d   1     -16.675  10.915   4.187  0.00  0.00     0.081 A 
ATOM      4  C   UNL d   1     -17.532  11.290   4.541  0.00  0.00     0.095 A 
ATOM      5  C   UNL d   1     -16.729  12.781   4.906  0.00  0.00     0.090 A 
ATOM      6  C   UNL d   1     -15.845  11.473   4.193  0.00  0.00     0.190 A 
ATOM      7  C   UNL d   1     -16.633   9.946   3.810  0.00  0.00     0.085 A 
ATOM      8  C   UNL d   1     -15.872  12.406   4.553  0.00  0.00     0.094 A 
ATOM      9  C   UNL d   1     -18.405  10.722   4.541  0.00  0.00     0.075 A 
ATOM     10  C   UNL d   1     -18.385   9.750   4.168  0.00  0.00     0.071 A 
ATOM     11  C   UNL d   1     -17.493   9.359   3.800  0.00  0.00     0.074 A 
ENDROOT
BRANCH   5  12
ATOM     12  C   UNL d   1     -16.756  13.713   5.266  0.00  0.00    -0.002 A 
ATOM     13  C   UNL d   1     -16.414  13.905   6.186  0.00  0.00     0.014 A 
ATOM     14  C   UNL d   1     -16.441  14.837   6.546  0.00  0.00     0.001 A 
ATOM     15  C   UNL d   1     -16.809  15.579   5.985  0.00  0.00     0.000 A 
ATOM     16  C   UNL d   1     -17.151  15.388   5.065  0.00  0.00     0.001 A 
ATOM     17  C   UNL d   1     -17.125  14.455   4.705  0.00  0.00     0.014 A 
ENDBRANCH   5  12
BRANCH   7  18
ATOM     18  O   UNL d   1     -15.770   9.581   3.459  0.00  0.00    -0.360 OA
ATOM     19  H   UNL d   1     -15.231   9.813   3.659  0.00  0.00     0.217 HD
ENDBRANCH   7  18
BRANCH  10  20
ATOM     20  O   UNL d   1     -19.218   9.195   4.164  0.00  0.00    -0.361 OA
ATOM     21  H   UNL d   1     -19.747   9.430   4.384  0.00  0.00     0.217 HD
ENDBRANCH  10  20
TORSDOF 3
ENDMDL
MODEL 4
REMARK VINA RESULT:    -6.688     22.453     23.959
REMARK INTER + INTRA:          -6.464
REMARK INTER:                  -7.482
REMARK INTRA:                   1.018
REMARK UNBOUND:                 1.006
REMARK  3 active torsions:
REMARK  status: ('A' for Active; 'I' for Inactive)
REMARK    1  A    between atoms: O_2  and  C_10 
REMARK    2  A    between atoms: O_4  and  C_13 
REMARK    3  A    between atoms: C_7  and  C_9 
ROOT
ATOM      1  O   UNL d   1      -2.458  32.062  -1.301  0.00  0.00    -0.309 OA
ATOM      2  O   UNL d   1      -2.904  35.000  -0.890  0.00  0.00    -0.287 OA
ATOM      3  C   UNL d   1      -3.221  33.358  -0.440  0.00  0.00     0.081 A 
ATOM      4  C   UNL d   1      -3.072  32.378  -0.577  0.00  0.00     0.095 A 
ATOM      5  C   UNL d   1      -1.993  32.725  -1.887  0.00  0.00     0.090 A 
ATOM      6  C   UNL d   1      -2.755  34.021  -1.027  0.00  0.00     0.190 A 
ATOM      7  C   UNL d   1      -3.858  33.701   0.308  0.00  0.00     0.085 A 
ATOM      8  C   UNL d   1      -2.141  33.705  -1.750  0.00  0.00     0.094 A 
ATOM      9  C   UNL d   1      -3.550  31.675   0.025  0.00  0.00     0.075 A 
ATOM     10  C   UNL d   1      -4.191  31.997   0.780  0.00  0.00     0.071 A 
ATOM     11  C   UNL d   1      -4.346  33.017   0.923  0.00  0.00     0.074 A 
ENDROOT
BRANCH   5  12
ATOM     12  C   UNL d   1      -1.379  32.409  -2.610  0.00  0.00    -0.002 A 
ATOM     13  C   UNL d   1      -1.684  32.412  -3.562  0.00  0.00     0.014 A 
ATOM     14  C   UNL d   1      -1.070  32.096  -4.285  0.00  0.00     0.001 A 
ATOM     15  C   UNL d   1      -0.150  31.777  -4.056  0.00  0.00     0.000 A 
ATOM     16  C   UNL d   1       0.155  31.773  -3.104  0.00  0.00     0.001 A 
ATOM     17  C   UNL d   1      -0.459  32.090  -2.381  0.00  0.00     0.014 A 
ENDBRANCH   5  12
BRANCH   7  18
ATOM     18  O   UNL d   1      -3.999  34.683   0.436  0.00  0.00    -0.360 OA
ATOM     19  H   UNL d   1      -3.662  34.992   0.855  0.00  0.00     0.217 HD
ENDBRANCH   7  18
BRANCH  10  20
ATOM     20  O   UNL d   1      -4.655  31.330   1.364  0.00  0.00    -0.361 OA
ATOM     21  H   UNL d   1      -4.330  31.003   1.778  0.00  0.00     0.217 HD
ENDBRANCH  10  20
TORSDOF 3
ENDMDL
MODEL 5
REMARK VINA RESULT:    -6.646      2.105      4.271
REMARK INTER + INTRA:          -6.417
REMARK INTER:                  -7.421
REMARK INTRA:                   1.004
REMARK UNBOUND:                 1.006
REMARK  3 active torsions:
REMARK  status: ('A' for Active; 'I' for Inactive)
REMARK    1  A    between atoms: O_2  and  C_10 
REMARK    2  A    between atoms: O_4  and  C_13 
REMARK    3  A    between atoms: C_7  and  C_9 
ROOT
ATOM      1  O   UNL d   1     -16.708  12.571   4.839  0.00  0.00    -0.309 OA
ATOM      2  O   UNL d   1     -17.765  15.160   3.752  0.00  0.00    -0.287 OA
ATOM      3  C   UNL d   1     -17.017  14.265   5.032  0.00  0.00     0.081 A 
ATOM      4  C   UNL d   1     -16.664  13.402   5.394  0.00  0.00     0.095 A 
ATOM      5  C   UNL d   1     -17.105  12.604   3.922  0.00  0.00     0.090 A 
ATOM      6  C   UNL d   1     -17.413  14.297   4.115  0.00  0.00     0.190 A 
ATOM      7  C   UNL d   1     -16.977  15.138   5.599  0.00  0.00     0.085 A 
ATOM      8  C   UNL d   1     -17.457  13.467   3.559  0.00  0.00     0.094 A 
ATOM      9  C   UNL d   1     -16.249  13.352   6.348  0.00  0.00     0.075 A 
ATOM     10  C   UNL d   1     -16.199  14.213   6.933  0.00  0.00     0.071 A 
ATOM     11  C   UNL d   1     -16.566  15.112   6.555  0.00  0.00     0.074 A 
ENDROOT
BRANCH   5  12
ATOM     12  C   UNL d   1     -17.149  11.773   3.367  0.00  0.00    -0.002 A 
ATOM     13  C   UNL d   1     -17.990  11.234   3.340  0.00  0.00     0.014 A 
ATOM     14  C   UNL d   1     -18.034  10.403   2.785  0.00  0.00     0.001 A 
ATOM     15  C   UNL d   1     -17.237  10.112   2.256  0.00  0.00     0.000 A 
ATOM     16  C   UNL d   1     -16.395  10.652   2.283  0.00  0.00     0.001 A 
ATOM     17  C   UNL d   1     -16.351  11.482   2.838  0.00  0.00     0.014 A 
ENDBRANCH   5  12
BRANCH   7  18
ATOM     18  O   UNL d   1     -17.333  15.995   5.226  0.00  0.00    -0.360 OA
ATOM     19  H   UNL d   1     -17.136  16.537   5.454  0.00  0.00     0.217 HD
ENDBRANCH   7  18
BRANCH  10  20
ATOM     20  O   UNL d   1     -15.802  14.177   7.850  0.00  0.00    -0.361 OA
ATOM     21  H   UNL d   1     -15.956  14.604   8.271  0.00  0.00     0.217 HD
ENDBRANCH  10  20
TORSDOF 3
ENDMDL
