MODEL 1
REMARK VINA RESULT:    -6.876      0.000      0.000
REMARK INTER + INTRA:          -6.458
REMARK INTER:                  -8.754
REMARK INTRA:                   2.295
REMARK UNBOUND:                 1.824
REMARK  5 active torsions:
REMARK  status: ('A' for Active; 'I' for Inactive)
REMARK    1  A    between atoms: O_2  and  C_13 
REMARK    2  A    between atoms: O_3  and  C_19 
REMARK    3  A    between atoms: O_5  and  C_17 
REMARK    4  A    between atoms: O_6  and  C_21 
REMARK    5  A    between atoms: C_8  and  C_10 
ROOT
ATOM      1  O   UNL d   1     -17.405  16.240   5.053  0.00  0.00    -0.309 OA
ATOM      2  O   UNL d   1     -17.919  13.915   3.228  0.00  0.00    -0.287 OA
ATOM      3  C   UNL d   1     -17.257  14.551   4.697  0.00  0.00     0.081 A 
ATOM      4  C   UNL d   1     -17.895  16.379   4.193  0.00  0.00     0.090 A 
ATOM      5  C   UNL d   1     -17.085  15.326   5.305  0.00  0.00     0.095 A 
ATOM      6  C   UNL d   1     -17.747  14.690   3.836  0.00  0.00     0.190 A 
ATOM      7  C   UNL d   1     -18.067  15.604   3.584  0.00  0.00     0.094 A 
ATOM      8  C   UNL d   1     -16.931  13.594   4.946  0.00  0.00     0.085 A 
ATOM      9  C   UNL d   1     -16.576  15.198   6.204  0.00  0.00     0.075 A 
ATOM     10  C   UNL d   1     -16.240  14.249   6.474  0.00  0.00     0.071 A 
ATOM     11  C   UNL d   1     -16.419  13.442   5.840  0.00  0.00     0.074 A 
ENDROOT
BRANCH   4  12
ATOM     12  C   UNL d   1     -18.214  17.292   3.941  0.00  0.00     0.001 A 
ATOM     13  C   UNL d   1     -18.515  17.476   3.005  0.00  0.00     0.054 A 
ATOM     14  C   UNL d   1     -18.834  18.390   2.753  0.00  0.00     0.102 A 
ATOM     15  C   UNL d   1     -18.852  19.119   3.437  0.00  0.00     0.099 A 
ATOM     16  C   UNL d   1     -18.552  18.935   4.372  0.00  0.00     0.040 A 
ATOM     17  C   UNL d   1     -18.232  18.022   4.624  0.00  0.00     0.017 A 
BRANCH  14  18
ATOM     18  O   UNL d   1     -19.135  18.574   1.817  0.00  0.00    -0.353 OA
ATOM     19  C   UNL d   1     -18.674  18.132   1.048  0.00  0.00     0.210 C 
ENDBRANCH  14  18
BRANCH  15  20
ATOM     20  O   UNL d   1     -19.172  20.033   3.185  0.00  0.00    -0.358 OA
ATOM     21  H   UNL d   1     -19.669  20.275   3.464  0.00  0.00     0.217 HD
ENDBRANCH  15  20
ENDBRANCH   4  12
BRANCH   8  22
ATOM     22  O   UNL d   1     -17.108  12.827   4.330  0.00  0.00    -0.360 OA
ATOM     23  H   UNL d   1     -16.949  12.252   4.498  0.00  0.00     0.217 HD
ENDBRANCH   8  22
BRANCH  10  24
ATOM     24  O   UNL d   1     -15.750  14.115   7.335  0.00  0.00    -0.361 OA
ATOM     25  H   UNL d   1     -15.306  13.684   7.375  0.00  0.00     0.217 HD
ENDBRANCH  10  24
TORSDOF 5
ENDMDL
MODEL 2
REMARK VINA RESULT:    -6.742      1.039      5.139
REMARK INTER + INTRA:          -6.297
REMARK INTER:                  -8.586
REMARK INTRA:                   2.288
REMARK UNBOUND:                 1.824
REMARK  5 active torsions:
REMARK  status: ('A' for Active; 'I' for Inactive)
REMARK    1  A    between atoms: O_2  and  C_13 
REMARK    2  A    between atoms: O_3  and  C_19 
REMARK    3  A    between atoms: O_5  and  C_17 
REMARK    4  A    between atoms: O_6  and  C_21 
REMARK    5  A    between atoms: C_8  and  C_10 
ROOT
ATOM      1  O   UNL d   1     -17.800  16.264   4.309  0.00  0.00    -0.309 OA
ATOM      2  O   UNL d   1     -19.448  15.901   1.829  0.00  0.00    -0.287 OA
ATOM      3  C   UNL d   1     -18.813  16.927   3.071  0.00  0.00     0.081 A 
ATOM      4  C   UNL d   1     -17.885  15.359   3.893  0.00  0.00     0.090 A 
ATOM      5  C   UNL d   1     -18.264  17.049   3.897  0.00  0.00     0.095 A 
ATOM      6  C   UNL d   1     -18.899  16.022   2.655  0.00  0.00     0.190 A 
ATOM      7  C   UNL d   1     -18.434  15.238   3.067  0.00  0.00     0.094 A 
ATOM      8  C   UNL d   1     -19.302  17.735   2.631  0.00  0.00     0.085 A 
ATOM      9  C   UNL d   1     -18.166  17.986   4.342  0.00  0.00     0.075 A 
ATOM     10  C   UNL d   1     -18.646  18.808   3.919  0.00  0.00     0.071 A 
ATOM     11  C   UNL d   1     -19.218  18.681   3.058  0.00  0.00     0.074 A 
ENDROOT
BRANCH   4  12
ATOM     12  C   UNL d   1     -17.421  14.574   4.305  0.00  0.00     0.001 A 
ATOM     13  C   UNL d   1     -16.994  14.662   5.205  0.00  0.00     0.054 A 
ATOM     14  C   UNL d   1     -16.530  13.877   5.617  0.00  0.00     0.102 A 
ATOM     15  C   UNL d   1     -16.492  13.006   5.128  0.00  0.00     0.099 A 
ATOM     16  C   UNL d   1     -16.918  12.919   4.227  0.00  0.00     0.040 A 
ATOM     17  C   UNL d   1     -17.382  13.703   3.816  0.00  0.00     0.017 A 
BRANCH  14  18
ATOM     18  O   UNL d   1     -16.104  13.964   6.517  0.00  0.00    -0.353 OA
ATOM     19  C   UNL d   1     -16.494  14.585   7.197  0.00  0.00     0.210 C 
ENDBRANCH  14  18
BRANCH  15  20
ATOM     20  O   UNL d   1     -16.028  12.222   5.539  0.00  0.00    -0.358 OA
ATOM     21  H   UNL d   1     -16.349  11.814   5.878  0.00  0.00     0.217 HD
ENDBRANCH  15  20
ENDBRANCH   4  12
BRANCH   8  22
ATOM     22  O   UNL d   1     -19.849  17.602   1.805  0.00  0.00    -0.360 OA
ATOM     23  H   UNL d   1     -19.850  18.034   1.361  0.00  0.00     0.217 HD
ENDBRANCH   8  22
BRANCH  10  24
ATOM     24  O   UNL d   1     -18.559  19.712   4.337  0.00  0.00    -0.361 OA
ATOM     25  H   UNL d   1     -19.038  20.104   4.330  0.00  0.00     0.217 HD
ENDBRANCH  10  24
TORSDOF 5
ENDMDL
MODEL 3
REMARK VINA RESULT:    -6.530      2.792      5.088
REMARK INTER + INTRA:          -6.042
REMARK INTER:                  -7.906
REMARK INTRA:                   1.865
REMARK UNBOUND:                 1.824
REMARK  5 active torsions:
REMARK  status: ('A' for Active; 'I' for Inactive)
REMARK    1  A    between atoms: O_2  and  C_13 
REMARK    2  A    between atoms: O_3  and  C_19 
REMARK    3  A    between atoms: O_5  and  C_17 
REMARK    4  A    between atoms: O_6  and  C_21 
REMARK    5  A    between atoms: C_8  and  C_10 
ROOT
ATOM      1  O   UNL d   1     -17.725  11.726   4.593  0.00  0.00    -0.309 OA
ATOM      2  O   UNL d   1     -15.169  10.639   3.460  0.00  0.00    -0.287 OA
ATOM      3  C   UNL d   1     -16.804  10.395   3.977  0.00  0.00     0.081 A 
ATOM      4  C   UNL d   1     -16.942  12.332   4.454  0.00  0.00     0.090 A 
ATOM      5  C   UNL d   1     -17.656  10.757   4.355  0.00  0.00     0.095 A 
ATOM      6  C   UNL d   1     -16.021  11.001   3.838  0.00  0.00     0.190 A 
ATOM      7  C   UNL d   1     -16.090  11.970   4.076  0.00  0.00     0.094 A 
ATOM      8  C   UNL d   1     -16.718   9.388   3.724  0.00  0.00     0.085 A 
ATOM      9  C   UNL d   1     -18.480  10.138   4.506  0.00  0.00     0.075 A 
ATOM     10  C   UNL d   1     -18.416   9.128   4.260  0.00  0.00     0.071 A 
ATOM     11  C   UNL d   1     -17.529   8.751   3.866  0.00  0.00     0.074 A 
ENDROOT
BRANCH   4  12
ATOM     12  C   UNL d   1     -17.011  13.301   4.693  0.00  0.00     0.001 A 
ATOM     13  C   UNL d   1     -16.651  13.627   5.567  0.00  0.00     0.054 A 
ATOM     14  C   UNL d   1     -16.720  14.596   5.805  0.00  0.00     0.102 A 
ATOM     15  C   UNL d   1     -17.149  15.238   5.170  0.00  0.00     0.099 A 
ATOM     16  C   UNL d   1     -17.509  14.911   4.296  0.00  0.00     0.040 A 
ATOM     17  C   UNL d   1     -17.440  13.943   4.057  0.00  0.00     0.017 A 
BRANCH  14  18
ATOM     18  O   UNL d   1     -16.360  14.923   6.679  0.00  0.00    -0.353 OA
ATOM     19  C   UNL d   1     -16.358  14.319   7.476  0.00  0.00     0.210 C 
ENDBRANCH  14  18
BRANCH  15  20
ATOM     20  O   UNL d   1     -17.219  16.207   5.408  0.00  0.00    -0.358 OA
ATOM     21  H   UNL d   1     -16.971  16.636   5.036  0.00  0.00     0.217 HD
ENDBRANCH  15  20
ENDBRANCH   4  12
BRANCH   8  22
ATOM     22  O   UNL d   1     -15.861   9.037   3.347  0.00  0.00    -0.360 OA
ATOM     23  H   UNL d   1     -15.623   9.288   2.833  0.00  0.00     0.217 HD
ENDBRANCH   8  22
BRANCH  10  24
ATOM     24  O   UNL d   1     -19.201   8.525   4.401  0.00  0.00    -0.361 OA
ATOM     25  H   UNL d   1     -19.683   8.547   4.011  0.00  0.00     0.217 HD
ENDBRANCH  10  24
TORSDOF 5
ENDMDL
MODEL 4
REMARK VINA RESULT:    -6.498      0.985      2.006
REMARK INTER + INTRA:          -6.004
REMARK INTER:                  -8.279
REMARK INTRA:                   2.275
REMARK UNBOUND:                 1.824
REMARK  5 active torsions:
REMARK  status: ('A' for Active; 'I' for Inactive)
REMARK    1  A    between atoms: O_2  and  C_13 
REMARK    2  A    between atoms: O_3  and  C_19 
REMARK    3  A    between atoms: O_5  and  C_17 
REMARK    4  A    between atoms: O_6  and  C_21 
REMARK    5  A    between atoms: C_8  and  C_10 
ROOT
ATOM      1  O   UNL d   1     -17.758  15.015   3.869  0.00  0.00    -0.309 OA
ATOM      2  O   UNL d   1     -16.256  14.963   6.465  0.00  0.00    -0.287 OA
ATOM      3  C   UNL d   1     -16.864  14.141   5.067  0.00  0.00     0.081 A 
ATOM      4  C   UNL d   1     -17.650  15.855   4.401  0.00  0.00     0.090 A 
ATOM      5  C   UNL d   1     -17.365  14.158   4.202  0.00  0.00     0.095 A 
ATOM      6  C   UNL d   1     -16.756  14.980   5.600  0.00  0.00     0.190 A 
ATOM      7  C   UNL d   1     -17.149  15.837   5.266  0.00  0.00     0.094 A 
ATOM      8  C   UNL d   1     -16.450  13.256   5.427  0.00  0.00     0.085 A 
ATOM      9  C   UNL d   1     -17.486  13.292   3.636  0.00  0.00     0.075 A 
ATOM     10  C   UNL d   1     -17.080  12.395   3.977  0.00  0.00     0.071 A 
ATOM     11  C   UNL d   1     -16.558  12.377   4.878  0.00  0.00     0.074 A 
ENDROOT
BRANCH   4  12
ATOM     12  C   UNL d   1     -18.042  16.712   4.068  0.00  0.00     0.001 A 
ATOM     13  C   UNL d   1     -18.561  16.726   3.213  0.00  0.00     0.054 A 
ATOM     14  C   UNL d   1     -18.953  17.583   2.879  0.00  0.00     0.102 A 
ATOM     15  C   UNL d   1     -18.828  18.426   3.401  0.00  0.00     0.099 A 
ATOM     16  C   UNL d   1     -18.310  18.413   4.257  0.00  0.00     0.040 A 
ATOM     17  C   UNL d   1     -17.917  17.556   4.590  0.00  0.00     0.017 A 
BRANCH  14  18
ATOM     18  O   UNL d   1     -19.471  17.596   2.024  0.00  0.00    -0.353 OA
ATOM     19  C   UNL d   1     -19.308  16.896   1.329  0.00  0.00     0.210 C 
ENDBRANCH  14  18
BRANCH  15  20
ATOM     20  O   UNL d   1     -19.221  19.284   3.068  0.00  0.00    -0.358 OA
ATOM     21  H   UNL d   1     -18.849  19.747   2.891  0.00  0.00     0.217 HD
ENDBRANCH  15  20
ENDBRANCH   4  12
BRANCH   8  22
ATOM     22  O   UNL d   1     -15.951  13.250   6.294  0.00  0.00    -0.360 OA
ATOM     23  H   UNL d   1     -16.262  13.236   6.829  0.00  0.00     0.217 HD
ENDBRANCH   8  22
BRANCH  10  24
ATOM     24  O   UNL d   1     -17.190  11.558   3.441  0.00  0.00    -0.361 OA
ATOM     25  H   UNL d   1     -17.736  11.428   3.178  0.00  0.00     0.217 HD
ENDBRANCH  10  24
TORSDOF 5
ENDMDL
MODEL 5
REMARK VINA RESULT:    -6.462     11.619     12.778
REMARK INTER + INTRA:          -5.960
REMARK INTER:                  -7.824
REMARK INTRA:                   1.864
REMARK UNBOUND:                 1.824
REMARK  5 active torsions:
REMARK  status: ('A' for Active; 'I' for Inactive)
REMARK    1  A    between atoms: O_2  and  C_13 
REMARK    2  A    between atoms: O_3  and  C_19 
REMARK    3  A    between atoms: O_5  and  C_17 
REMARK    4  A    between atoms: O_6  and  C_21 
REMARK    5  A    between atoms: C_8  and  C_10 
ROOT
ATOM      1  O   UNL d   1     -13.221  18.588  15.016  0.00  0.00    -0.309 OA
ATOM      2  O   UNL d   1     -11.680  18.638  17.590  0.00  0.00    -0.287 OA
ATOM      3  C   UNL d   1     -12.201  17.795  16.169  0.00  0.00     0.081 A 
ATOM      4  C   UNL d   1     -13.214  19.415  15.579  0.00  0.00     0.090 A 
ATOM      5  C   UNL d   1     -12.715  17.778  15.312  0.00  0.00     0.095 A 
ATOM      6  C   UNL d   1     -12.194  18.622  16.732  0.00  0.00     0.190 A 
ATOM      7  C   UNL d   1     -12.700  19.432  16.437  0.00  0.00     0.094 A 
ATOM      8  C   UNL d   1     -11.669  16.959  16.489  0.00  0.00     0.085 A 
ATOM      9  C   UNL d   1     -12.732  16.924  14.715  0.00  0.00     0.075 A 
ATOM     10  C   UNL d   1     -12.207  16.077  15.016  0.00  0.00     0.071 A 
ATOM     11  C   UNL d   1     -11.672  16.094  15.909  0.00  0.00     0.074 A 
ENDROOT
BRANCH   4  12
ATOM     12  C   UNL d   1     -13.721  20.225  15.284  0.00  0.00     0.001 A 
ATOM     13  C   UNL d   1     -14.557  20.494  15.762  0.00  0.00     0.054 A 
ATOM     14  C   UNL d   1     -15.063  21.304  15.467  0.00  0.00     0.102 A 
ATOM     15  C   UNL d   1     -14.734  21.845  14.693  0.00  0.00     0.099 A 
ATOM     16  C   UNL d   1     -13.898  21.576  14.215  0.00  0.00     0.040 A 
ATOM     17  C   UNL d   1     -13.391  20.766  14.510  0.00  0.00     0.017 A 
BRANCH  14  18
ATOM     18  O   UNL d   1     -15.900  21.573  15.945  0.00  0.00    -0.353 OA
ATOM     19  C   UNL d   1     -16.366  20.920  16.542  0.00  0.00     0.210 C 
ENDBRANCH  14  18
BRANCH  15  20
ATOM     20  O   UNL d   1     -15.241  22.655  14.398  0.00  0.00    -0.358 OA
ATOM     21  H   UNL d   1     -15.785  22.592  14.109  0.00  0.00     0.217 HD
ENDBRANCH  15  20
ENDBRANCH   4  12
BRANCH   8  22
ATOM     22  O   UNL d   1     -11.159  16.987  17.349  0.00  0.00    -0.360 OA
ATOM     23  H   UNL d   1     -11.444  17.154  17.873  0.00  0.00     0.217 HD
ENDBRANCH   8  22
BRANCH  10  24
ATOM     24  O   UNL d   1     -12.217  15.252  14.450  0.00  0.00    -0.361 OA
ATOM     25  H   UNL d   1     -12.167  14.694  14.716  0.00  0.00     0.217 HD
ENDBRANCH  10  24
TORSDOF 5
ENDMDL
