MODEL 1
REMARK VINA RESULT:    -8.634      0.000      0.000
REMARK INTER + INTRA:          -8.392
REMARK INTER:                 -10.216
REMARK INTRA:                   1.824
REMARK UNBOUND:                 2.009
REMARK  5 active torsions:
REMARK  status: ('A' for Active; 'I' for Inactive)
REMARK    1  A    between atoms: O_2  and  C_13 
REMARK    2  A    between atoms: O_3  and  C_19 
REMARK    3  A    between atoms: O_5  and  C_17 
REMARK    4  A    between atoms: O_6  and  C_21 
REMARK    5  A    between atoms: C_8  and  C_10 
ROOT
ATOM      1  O   UNL d   1      35.361   8.631   2.609  0.00  0.00    -0.309 OA
ATOM      2  O   UNL d   1      34.039   6.030   3.309  0.00  0.00    -0.287 OA
ATOM      3  C   UNL d   1      34.685   7.113   2.121  0.00  0.00     0.081 A 
ATOM      4  C   UNL d   1      35.156   8.415   3.564  0.00  0.00     0.090 A 
ATOM      5  C   UNL d   1      35.126   7.979   1.888  0.00  0.00     0.095 A 
ATOM      6  C   UNL d   1      34.480   6.897   3.076  0.00  0.00     0.190 A 
ATOM      7  C   UNL d   1      34.716   7.548   3.797  0.00  0.00     0.094 A 
ATOM      8  C   UNL d   1      34.434   6.425   1.380  0.00  0.00     0.085 A 
ATOM      9  C   UNL d   1      35.346   8.218   0.898  0.00  0.00     0.075 A 
ATOM     10  C   UNL d   1      35.104   7.545   0.141  0.00  0.00     0.071 A 
ATOM     11  C   UNL d   1      34.645   6.642   0.384  0.00  0.00     0.074 A 
ENDROOT
BRANCH   4  12
ATOM     12  C   UNL d   1      35.392   9.066   4.285  0.00  0.00     0.001 A 
ATOM     13  C   UNL d   1      34.713   9.730   4.600  0.00  0.00     0.054 A 
ATOM     14  C   UNL d   1      34.949  10.381   5.322  0.00  0.00     0.102 A 
ATOM     15  C   UNL d   1      35.862  10.369   5.728  0.00  0.00     0.099 A 
ATOM     16  C   UNL d   1      36.541   9.705   5.412  0.00  0.00     0.040 A 
ATOM     17  C   UNL d   1      36.305   9.054   4.691  0.00  0.00     0.017 A 
BRANCH  14  18
ATOM     18  O   UNL d   1      34.270  11.045   5.637  0.00  0.00    -0.353 OA
ATOM     19  C   UNL d   1      33.309  10.937   5.383  0.00  0.00     0.210 C 
ENDBRANCH  14  18
BRANCH  15  20
ATOM     20  O   UNL d   1      36.098  11.020   6.449  0.00  0.00    -0.358 OA
ATOM     21  H   UNL d   1      36.153  11.623   6.316  0.00  0.00     0.217 HD
ENDBRANCH  15  20
ENDBRANCH   4  12
BRANCH   8  22
ATOM     22  O   UNL d   1      33.994   5.561   1.625  0.00  0.00    -0.360 OA
ATOM     23  H   UNL d   1      33.597   5.540   2.101  0.00  0.00     0.217 HD
ENDBRANCH   8  22
BRANCH  10  24
ATOM     24  O   UNL d   1      35.311   7.764  -0.813  0.00  0.00    -0.361 OA
ATOM     25  H   UNL d   1      35.040   8.251  -1.084  0.00  0.00     0.217 HD
ENDBRANCH  10  24
TORSDOF 5
ENDMDL
MODEL 2
REMARK VINA RESULT:    -8.351      1.150      5.156
REMARK INTER + INTRA:          -8.051
REMARK INTER:                  -9.933
REMARK INTRA:                   1.882
REMARK UNBOUND:                 2.009
REMARK  5 active torsions:
REMARK  status: ('A' for Active; 'I' for Inactive)
REMARK    1  A    between atoms: O_2  and  C_13 
REMARK    2  A    between atoms: O_3  and  C_19 
REMARK    3  A    between atoms: O_5  and  C_17 
REMARK    4  A    between atoms: O_6  and  C_21 
REMARK    5  A    between atoms: C_8  and  C_10 
ROOT
ATOM      1  O   UNL d   1      34.701   8.744   2.882  0.00  0.00    -0.309 OA
ATOM      2  O   UNL d   1      36.948   7.789   4.626  0.00  0.00    -0.287 OA
ATOM      3  C   UNL d   1      35.681   8.924   4.299  0.00  0.00     0.081 A 
ATOM      4  C   UNL d   1      35.219   7.928   2.628  0.00  0.00     0.090 A 
ATOM      5  C   UNL d   1      34.932   9.242   3.718  0.00  0.00     0.095 A 
ATOM      6  C   UNL d   1      36.199   8.107   4.045  0.00  0.00     0.190 A 
ATOM      7  C   UNL d   1      35.968   7.609   3.209  0.00  0.00     0.094 A 
ATOM      8  C   UNL d   1      35.933   9.432   5.173  0.00  0.00     0.085 A 
ATOM      9  C   UNL d   1      34.383  10.091   3.971  0.00  0.00     0.075 A 
ATOM     10  C   UNL d   1      34.618  10.615   4.840  0.00  0.00     0.071 A 
ATOM     11  C   UNL d   1      35.398  10.283   5.445  0.00  0.00     0.074 A 
ENDROOT
BRANCH   4  12
ATOM     12  C   UNL d   1      34.989   7.430   1.792  0.00  0.00     0.001 A 
ATOM     13  C   UNL d   1      35.151   7.850   0.899  0.00  0.00     0.054 A 
ATOM     14  C   UNL d   1      34.921   7.352   0.063  0.00  0.00     0.102 A 
ATOM     15  C   UNL d   1      34.527   6.434   0.120  0.00  0.00     0.099 A 
ATOM     16  C   UNL d   1      34.364   6.015   1.013  0.00  0.00     0.040 A 
ATOM     17  C   UNL d   1      34.595   6.512   1.849  0.00  0.00     0.017 A 
BRANCH  14  18
ATOM     18  O   UNL d   1      35.083   7.771  -0.830  0.00  0.00    -0.353 OA
ATOM     19  C   UNL d   1      35.652   8.591  -0.902  0.00  0.00     0.210 C 
ENDBRANCH  14  18
BRANCH  15  20
ATOM     20  O   UNL d   1      34.296   5.936  -0.716  0.00  0.00    -0.358 OA
ATOM     21  H   UNL d   1      34.622   6.033  -1.235  0.00  0.00     0.217 HD
ENDBRANCH  15  20
ENDBRANCH   4  12
BRANCH   8  22
ATOM     22  O   UNL d   1      36.684   9.104   5.746  0.00  0.00    -0.360 OA
ATOM     23  H   UNL d   1      37.086   8.689   5.522  0.00  0.00     0.217 HD
ENDBRANCH   8  22
BRANCH  10  24
ATOM     24  O   UNL d   1      34.097  11.431   5.091  0.00  0.00    -0.361 OA
ATOM     25  H   UNL d   1      34.184  11.961   4.782  0.00  0.00     0.217 HD
ENDBRANCH  10  24
TORSDOF 5
ENDMDL
MODEL 3
REMARK VINA RESULT:    -8.307     31.546     33.061
REMARK INTER + INTRA:          -7.998
REMARK INTER:                  -9.822
REMARK INTRA:                   1.824
REMARK UNBOUND:                 2.009
REMARK  5 active torsions:
REMARK  status: ('A' for Active; 'I' for Inactive)
REMARK    1  A    between atoms: O_2  and  C_13 
REMARK    2  A    between atoms: O_3  and  C_19 
REMARK    3  A    between atoms: O_5  and  C_17 
REMARK    4  A    between atoms: O_6  and  C_21 
REMARK    5  A    between atoms: C_8  and  C_10 
ROOT
ATOM      1  O   UNL d   1       6.793  -5.451   9.280  0.00  0.00    -0.309 OA
ATOM      2  O   UNL d   1       5.923  -4.678  12.045  0.00  0.00    -0.287 OA
ATOM      3  C   UNL d   1       7.179  -4.887  10.872  0.00  0.00     0.081 A 
ATOM      4  C   UNL d   1       5.827  -5.499   9.532  0.00  0.00     0.090 A 
ATOM      5  C   UNL d   1       7.470  -5.145   9.950  0.00  0.00     0.095 A 
ATOM      6  C   UNL d   1       6.213  -4.936  11.124  0.00  0.00     0.190 A 
ATOM      7  C   UNL d   1       5.536  -5.242  10.454  0.00  0.00     0.094 A 
ATOM      8  C   UNL d   1       7.873  -4.567  11.580  0.00  0.00     0.085 A 
ATOM      9  C   UNL d   1       8.473  -5.100   9.673  0.00  0.00     0.075 A 
ATOM     10  C   UNL d   1       9.183  -4.783  10.366  0.00  0.00     0.071 A 
ATOM     11  C   UNL d   1       8.881  -4.514  11.325  0.00  0.00     0.074 A 
ENDROOT
BRANCH   4  12
ATOM     12  C   UNL d   1       5.150  -5.805   8.862  0.00  0.00     0.001 A 
ATOM     13  C   UNL d   1       4.976  -6.782   8.737  0.00  0.00     0.054 A 
ATOM     14  C   UNL d   1       4.300  -7.088   8.067  0.00  0.00     0.102 A 
ATOM     15  C   UNL d   1       3.797  -6.417   7.522  0.00  0.00     0.099 A 
ATOM     16  C   UNL d   1       3.971  -5.440   7.647  0.00  0.00     0.040 A 
ATOM     17  C   UNL d   1       4.647  -5.134   8.317  0.00  0.00     0.017 A 
BRANCH  14  18
ATOM     18  O   UNL d   1       4.126  -8.065   7.942  0.00  0.00    -0.353 OA
ATOM     19  C   UNL d   1       4.623  -8.735   8.494  0.00  0.00     0.210 C 
ENDBRANCH  14  18
BRANCH  15  20
ATOM     20  O   UNL d   1       3.121  -6.723   6.852  0.00  0.00    -0.358 OA
ATOM     21  H   UNL d   1       3.146  -7.300   6.628  0.00  0.00     0.217 HD
ENDBRANCH  15  20
ENDBRANCH   4  12
BRANCH   8  22
ATOM     22  O   UNL d   1       7.571  -4.312  12.499  0.00  0.00    -0.360 OA
ATOM     23  H   UNL d   1       7.908  -4.476  12.992  0.00  0.00     0.217 HD
ENDBRANCH   8  22
BRANCH  10  24
ATOM     24  O   UNL d   1      10.149  -4.736  10.110  0.00  0.00    -0.361 OA
ATOM     25  H   UNL d   1      10.384  -4.209   9.883  0.00  0.00     0.217 HD
ENDBRANCH  10  24
TORSDOF 5
ENDMDL
MODEL 4
REMARK VINA RESULT:    -8.205      2.062      5.508
REMARK INTER + INTRA:          -7.875
REMARK INTER:                 -10.134
REMARK INTRA:                   2.260
REMARK UNBOUND:                 2.009
REMARK  5 active torsions:
REMARK  status: ('A' for Active; 'I' for Inactive)
REMARK    1  A    between atoms: O_2  and  C_13 
REMARK    2  A    between atoms: O_3  and  C_19 
REMARK    3  A    between atoms: O_5  and  C_17 
REMARK    4  A    between atoms: O_6  and  C_21 
REMARK    5  A    between atoms: C_8  and  C_10 
ROOT
ATOM      1  O   UNL d   1      35.381   8.342   0.853  0.00  0.00    -0.309 OA
ATOM      2  O   UNL d   1      34.216   5.585   0.649  0.00  0.00    -0.287 OA
ATOM      3  C   UNL d   1      34.677   6.952   1.608  0.00  0.00     0.081 A 
ATOM      4  C   UNL d   1      35.309   7.895  -0.039  0.00  0.00     0.090 A 
ATOM      5  C   UNL d   1      35.065   7.871   1.676  0.00  0.00     0.095 A 
ATOM      6  C   UNL d   1      34.604   6.504   0.717  0.00  0.00     0.190 A 
ATOM      7  C   UNL d   1      34.920   6.976  -0.107  0.00  0.00     0.094 A 
ATOM      8  C   UNL d   1      34.344   6.448   2.457  0.00  0.00     0.085 A 
ATOM      9  C   UNL d   1      35.147   8.350   2.597  0.00  0.00     0.075 A 
ATOM     10  C   UNL d   1      34.820   7.865   3.459  0.00  0.00     0.071 A 
ATOM     11  C   UNL d   1      34.416   6.908   3.389  0.00  0.00     0.074 A 
ENDROOT
BRANCH   4  12
ATOM     12  C   UNL d   1      35.625   8.366  -0.862  0.00  0.00     0.001 A 
ATOM     13  C   UNL d   1      35.272   8.097  -1.758  0.00  0.00     0.054 A 
ATOM     14  C   UNL d   1      35.588   8.569  -2.582  0.00  0.00     0.102 A 
ATOM     15  C   UNL d   1      36.256   9.309  -2.509  0.00  0.00     0.099 A 
ATOM     16  C   UNL d   1      36.609   9.578  -1.612  0.00  0.00     0.040 A 
ATOM     17  C   UNL d   1      36.293   9.107  -0.789  0.00  0.00     0.017 A 
BRANCH  14  18
ATOM     18  O   UNL d   1      35.236   8.300  -3.478  0.00  0.00    -0.353 OA
ATOM     19  C   UNL d   1      34.842   7.390  -3.608  0.00  0.00     0.210 C 
ENDBRANCH  14  18
BRANCH  15  20
ATOM     20  O   UNL d   1      36.572   9.781  -3.332  0.00  0.00    -0.358 OA
ATOM     21  H   UNL d   1      36.275   9.697  -3.870  0.00  0.00     0.217 HD
ENDBRANCH  15  20
ENDBRANCH   4  12
BRANCH   8  22
ATOM     22  O   UNL d   1      33.957   5.530   2.377  0.00  0.00    -0.360 OA
ATOM     23  H   UNL d   1      33.357   5.457   2.240  0.00  0.00     0.217 HD
ENDBRANCH   8  22
BRANCH  10  24
ATOM     24  O   UNL d   1      34.895   8.316   4.349  0.00  0.00    -0.361 OA
ATOM     25  H   UNL d   1      35.288   8.097   4.775  0.00  0.00     0.217 HD
ENDBRANCH  10  24
TORSDOF 5
ENDMDL
MODEL 5
REMARK VINA RESULT:    -7.975     30.693     32.206
REMARK INTER + INTRA:          -7.597
REMARK INTER:                  -9.617
REMARK INTRA:                   2.019
REMARK UNBOUND:                 2.009
REMARK  5 active torsions:
REMARK  status: ('A' for Active; 'I' for Inactive)
REMARK    1  A    between atoms: O_2  and  C_13 
REMARK    2  A    between atoms: O_3  and  C_19 
REMARK    3  A    between atoms: O_5  and  C_17 
REMARK    4  A    between atoms: O_6  and  C_21 
REMARK    5  A    between atoms: C_8  and  C_10 
ROOT
ATOM      1  O   UNL d   1      24.181 -12.762  23.639  0.00  0.00    -0.309 OA
ATOM      2  O   UNL d   1      23.130 -10.955  25.790  0.00  0.00    -0.287 OA
ATOM      3  C   UNL d   1      23.872 -11.167  24.240  0.00  0.00     0.081 A 
ATOM      4  C   UNL d   1      23.789 -13.152  24.472  0.00  0.00     0.090 A 
ATOM      5  C   UNL d   1      24.223 -11.770  23.523  0.00  0.00     0.095 A 
ATOM      6  C   UNL d   1      23.480 -11.557  25.073  0.00  0.00     0.190 A 
ATOM      7  C   UNL d   1      23.439 -12.550  25.189  0.00  0.00     0.094 A 
ATOM      8  C   UNL d   1      23.909 -10.132  24.133  0.00  0.00     0.085 A 
ATOM      9  C   UNL d   1      24.634 -11.378  22.649  0.00  0.00     0.075 A 
ATOM     10  C   UNL d   1      24.680 -10.346  22.521  0.00  0.00     0.071 A 
ATOM     11  C   UNL d   1      24.316  -9.719  23.267  0.00  0.00     0.074 A 
ENDROOT
BRANCH   4  12
ATOM     12  C   UNL d   1      23.748 -14.144  24.588  0.00  0.00     0.001 A 
ATOM     13  C   UNL d   1      24.552 -14.705  24.388  0.00  0.00     0.054 A 
ATOM     14  C   UNL d   1      24.510 -15.697  24.504  0.00  0.00     0.102 A 
ATOM     15  C   UNL d   1      23.665 -16.129  24.820  0.00  0.00     0.099 A 
ATOM     16  C   UNL d   1      22.862 -15.568  25.020  0.00  0.00     0.040 A 
ATOM     17  C   UNL d   1      22.903 -14.576  24.904  0.00  0.00     0.017 A 
BRANCH  14  18
ATOM     18  O   UNL d   1      25.314 -16.258  24.305  0.00  0.00    -0.353 OA
ATOM     19  C   UNL d   1      26.216 -15.833  24.236  0.00  0.00     0.210 C 
ENDBRANCH  14  18
BRANCH  15  20
ATOM     20  O   UNL d   1      23.624 -17.121  24.936  0.00  0.00    -0.358 OA
ATOM     21  H   UNL d   1      23.542 -17.488  24.443  0.00  0.00     0.217 HD
ENDBRANCH  15  20
ENDBRANCH   4  12
BRANCH   8  22
ATOM     22  O   UNL d   1      23.555  -9.539  24.856  0.00  0.00    -0.360 OA
ATOM     23  H   UNL d   1      23.948  -9.254  25.242  0.00  0.00     0.217 HD
ENDBRANCH   8  22
BRANCH  10  24
ATOM     24  O   UNL d   1      25.073  -9.960  21.686  0.00  0.00    -0.361 OA
ATOM     25  H   UNL d   1      24.701  -9.723  21.250  0.00  0.00     0.217 HD
ENDBRANCH  10  24
TORSDOF 5
ENDMDL
