MODEL 1
REMARK VINA RESULT:    -8.870      0.000      0.000
REMARK INTER + INTRA:          -7.166
REMARK INTER:                 -10.631
REMARK INTRA:                   3.465
REMARK UNBOUND:                 3.519
REMARK  6 active torsions:
REMARK  status: ('A' for Active; 'I' for Inactive)
REMARK    1  A    between atoms: O_2  and  C_7 
REMARK    2  A    between atoms: O_3  and  C_13 
REMARK    3  A    between atoms: O_4  and  C_18 
REMARK    4  A    between atoms: O_5  and  C_19 
REMARK    5  A    between atoms: O_6  and  C_21 
REMARK    6  A    between atoms: C_8  and  C_12 
ROOT
ATOM      1  O   UNL d   1      35.242   8.569   2.246  0.00  0.00    -0.338 OA
ATOM      2  C   UNL d   1      34.784   7.351   3.389  0.00  0.00     0.156 A 
ATOM      3  C   UNL d   1      35.096   8.281   3.192  0.00  0.00     0.191 A 
ATOM      4  C   UNL d   1      34.618   6.710   2.639  0.00  0.00     0.079 A 
ATOM      5  C   UNL d   1      34.764   6.999   1.693  0.00  0.00     0.011 A 
ATOM      6  C   UNL d   1      35.076   7.929   1.496  0.00  0.00     0.081 A 
ATOM      7  C   UNL d   1      34.587   6.321   0.923  0.00  0.00     0.077 A 
ATOM      8  C   UNL d   1      35.233   8.244   0.516  0.00  0.00     0.074 A 
ATOM      9  C   UNL d   1      34.737   6.615  -0.065  0.00  0.00     0.073 A 
ATOM     10  C   UNL d   1      35.062   7.582  -0.270  0.00  0.00     0.071 A 
ENDROOT
BRANCH   3  11
ATOM     11  C   UNL d   1      35.263   8.921   3.942  0.00  0.00    -0.024 A 
ATOM     12  C   UNL d   1      36.152   8.936   4.399  0.00  0.00     0.049 A 
ATOM     13  C   UNL d   1      36.318   9.577   5.148  0.00  0.00     0.099 A 
ATOM     14  C   UNL d   1      35.595  10.203   5.441  0.00  0.00     0.098 A 
ATOM     15  C   UNL d   1      34.706  10.188   4.983  0.00  0.00     0.040 A 
ATOM     16  C   UNL d   1      34.540   9.547   4.234  0.00  0.00     0.013 A 
BRANCH  13  17
ATOM     17  O   UNL d   1      37.207   9.592   5.605  0.00  0.00    -0.358 OA
ATOM     18  H   UNL d   1      37.556  10.104   5.588  0.00  0.00     0.217 HD
ENDBRANCH  13  17
BRANCH  14  19
ATOM     19  O   UNL d   1      35.761  10.844   6.190  0.00  0.00    -0.358 OA
ATOM     20  H   UNL d   1      36.332  10.906   6.424  0.00  0.00     0.217 HD
ENDBRANCH  14  19
ENDBRANCH   3  11
BRANCH   2  21
ATOM     21  O   UNL d   1      34.638   7.063   4.335  0.00  0.00    -0.392 OA
ATOM     22  H   UNL d   1      34.062   6.983   4.549  0.00  0.00     0.210 HD
ENDBRANCH   2  21
BRANCH   7  23
ATOM     23  O   UNL d   1      34.275   5.394   1.131  0.00  0.00    -0.360 OA
ATOM     24  H   UNL d   1      34.049   5.035   0.680  0.00  0.00     0.217 HD
ENDBRANCH   7  23
BRANCH  10  25
ATOM     25  O   UNL d   1      35.209   7.874  -1.215  0.00  0.00    -0.361 OA
ATOM     26  H   UNL d   1      35.673   8.260  -1.352  0.00  0.00     0.217 HD
ENDBRANCH  10  25
TORSDOF 6
ENDMDL
MODEL 2
REMARK VINA RESULT:    -8.801      0.966      5.082
REMARK INTER + INTRA:          -7.083
REMARK INTER:                 -10.559
REMARK INTRA:                   3.476
REMARK UNBOUND:                 3.519
REMARK  6 active torsions:
REMARK  status: ('A' for Active; 'I' for Inactive)
REMARK    1  A    between atoms: O_2  and  C_7 
REMARK    2  A    between atoms: O_3  and  C_13 
REMARK    3  A    between atoms: O_4  and  C_18 
REMARK    4  A    between atoms: O_5  and  C_19 
REMARK    5  A    between atoms: O_6  and  C_21 
REMARK    6  A    between atoms: C_8  and  C_12 
ROOT
ATOM      1  O   UNL d   1      34.693   8.940   3.464  0.00  0.00    -0.338 OA
ATOM      2  C   UNL d   1      36.313   8.328   3.426  0.00  0.00     0.156 A 
ATOM      3  C   UNL d   1      35.389   8.358   3.044  0.00  0.00     0.191 A 
ATOM      4  C   UNL d   1      36.540   8.880   4.229  0.00  0.00     0.079 A 
ATOM      5  C   UNL d   1      35.843   9.461   4.649  0.00  0.00     0.011 A 
ATOM      6  C   UNL d   1      34.920   9.491   4.267  0.00  0.00     0.081 A 
ATOM      7  C   UNL d   1      36.094  10.030   5.484  0.00  0.00     0.077 A 
ATOM      8  C   UNL d   1      34.183  10.092   4.693  0.00  0.00     0.074 A 
ATOM      9  C   UNL d   1      35.373  10.638   5.927  0.00  0.00     0.073 A 
ATOM     10  C   UNL d   1      34.412  10.669   5.529  0.00  0.00     0.071 A 
ENDROOT
BRANCH   3  11
ATOM     11  C   UNL d   1      35.163   7.807   2.241  0.00  0.00    -0.024 A 
ATOM     12  C   UNL d   1      34.750   6.903   2.356  0.00  0.00     0.049 A 
ATOM     13  C   UNL d   1      34.523   6.351   1.553  0.00  0.00     0.099 A 
ATOM     14  C   UNL d   1      34.709   6.703   0.636  0.00  0.00     0.098 A 
ATOM     15  C   UNL d   1      35.122   7.607   0.521  0.00  0.00     0.040 A 
ATOM     16  C   UNL d   1      35.348   8.159   1.324  0.00  0.00     0.013 A 
BRANCH  13  17
ATOM     17  O   UNL d   1      34.110   5.448   1.668  0.00  0.00    -0.358 OA
ATOM     18  H   UNL d   1      33.574   5.388   1.974  0.00  0.00     0.217 HD
ENDBRANCH  13  17
BRANCH  14  19
ATOM     19  O   UNL d   1      34.482   6.152  -0.167  0.00  0.00    -0.358 OA
ATOM     20  H   UNL d   1      33.946   5.842  -0.188  0.00  0.00     0.217 HD
ENDBRANCH  14  19
ENDBRANCH   3  11
BRANCH   2  21
ATOM     21  O   UNL d   1      37.010   7.747   3.006  0.00  0.00    -0.392 OA
ATOM     22  H   UNL d   1      37.039   7.145   3.150  0.00  0.00     0.210 HD
ENDBRANCH   2  21
BRANCH   7  23
ATOM     23  O   UNL d   1      37.021   9.993   5.858  0.00  0.00    -0.360 OA
ATOM     24  H   UNL d   1      37.482   9.755   5.520  0.00  0.00     0.217 HD
ENDBRANCH   7  23
BRANCH  10  25
ATOM     25  O   UNL d   1      33.713  11.250   5.947  0.00  0.00    -0.361 OA
ATOM     26  H   UNL d   1      33.855  11.824   6.130  0.00  0.00     0.217 HD
ENDBRANCH  10  25
TORSDOF 6
ENDMDL
MODEL 3
REMARK VINA RESULT:    -8.228      0.800      1.879
REMARK INTER + INTRA:          -6.392
REMARK INTER:                  -9.860
REMARK INTRA:                   3.468
REMARK UNBOUND:                 3.519
REMARK  6 active torsions:
REMARK  status: ('A' for Active; 'I' for Inactive)
REMARK    1  A    between atoms: O_2  and  C_7 
REMARK    2  A    between atoms: O_3  and  C_13 
REMARK    3  A    between atoms: O_4  and  C_18 
REMARK    4  A    between atoms: O_5  and  C_19 
REMARK    5  A    between atoms: O_6  and  C_21 
REMARK    6  A    between atoms: C_8  and  C_12 
ROOT
ATOM      1  O   UNL d   1      34.901   7.796   2.426  0.00  0.00    -0.338 OA
ATOM      2  C   UNL d   1      35.547   9.243   1.727  0.00  0.00     0.156 A 
ATOM      3  C   UNL d   1      35.262   8.723   2.532  0.00  0.00     0.191 A 
ATOM      4  C   UNL d   1      35.472   8.837   0.816  0.00  0.00     0.079 A 
ATOM      5  C   UNL d   1      35.111   7.910   0.711  0.00  0.00     0.011 A 
ATOM      6  C   UNL d   1      34.826   7.390   1.515  0.00  0.00     0.081 A 
ATOM      7  C   UNL d   1      35.039   7.500  -0.244  0.00  0.00     0.077 A 
ATOM      8  C   UNL d   1      34.448   6.424   1.421  0.00  0.00     0.074 A 
ATOM      9  C   UNL d   1      34.664   6.536  -0.362  0.00  0.00     0.073 A 
ATOM     10  C   UNL d   1      34.367   5.994   0.476  0.00  0.00     0.071 A 
ENDROOT
BRANCH   3  11
ATOM     11  C   UNL d   1      35.337   9.129   3.442  0.00  0.00    -0.024 A 
ATOM     12  C   UNL d   1      36.158   8.975   3.992  0.00  0.00     0.049 A 
ATOM     13  C   UNL d   1      36.233   9.382   4.903  0.00  0.00     0.099 A 
ATOM     14  C   UNL d   1      35.488   9.942   5.264  0.00  0.00     0.098 A 
ATOM     15  C   UNL d   1      34.667  10.095   4.714  0.00  0.00     0.040 A 
ATOM     16  C   UNL d   1      34.591   9.689   3.803  0.00  0.00     0.013 A 
BRANCH  13  17
ATOM     17  O   UNL d   1      37.054   9.228   5.453  0.00  0.00    -0.358 OA
ATOM     18  H   UNL d   1      37.145   9.554   5.973  0.00  0.00     0.217 HD
ENDBRANCH  13  17
BRANCH  14  19
ATOM     19  O   UNL d   1      35.563  10.348   6.174  0.00  0.00    -0.358 OA
ATOM     20  H   UNL d   1      35.777  10.010   6.648  0.00  0.00     0.217 HD
ENDBRANCH  14  19
ENDBRANCH   3  11
BRANCH   2  21
ATOM     21  O   UNL d   1      35.908  10.170   1.833  0.00  0.00    -0.392 OA
ATOM     22  H   UNL d   1      35.627  10.571   2.213  0.00  0.00     0.210 HD
ENDBRANCH   2  21
BRANCH   7  23
ATOM     23  O   UNL d   1      35.327   8.030  -1.042  0.00  0.00    -0.360 OA
ATOM     24  H   UNL d   1      35.685   7.768  -1.474  0.00  0.00     0.217 HD
ENDBRANCH   7  23
BRANCH  10  25
ATOM     25  O   UNL d   1      34.006   5.067   0.374  0.00  0.00    -0.361 OA
ATOM     26  H   UNL d   1      34.336   4.582   0.572  0.00  0.00     0.217 HD
ENDBRANCH  10  25
TORSDOF 6
ENDMDL
MODEL 4
REMARK VINA RESULT:    -8.087     31.353     32.653
REMARK INTER + INTRA:          -6.223
REMARK INTER:                  -9.684
REMARK INTRA:                   3.461
REMARK UNBOUND:                 3.519
REMARK  6 active torsions:
REMARK  status: ('A' for Active; 'I' for Inactive)
REMARK    1  A    between atoms: O_2  and  C_7 
REMARK    2  A    between atoms: O_3  and  C_13 
REMARK    3  A    between atoms: O_4  and  C_18 
REMARK    4  A    between atoms: O_5  and  C_19 
REMARK    5  A    between atoms: O_6  and  C_21 
REMARK    6  A    between atoms: C_8  and  C_12 
ROOT
ATOM      1  O   UNL d   1       7.634  -5.213  13.412  0.00  0.00    -0.338 OA
ATOM      2  C   UNL d   1       6.395  -4.401  12.515  0.00  0.00     0.156 A 
ATOM      3  C   UNL d   1       7.342  -4.711  12.598  0.00  0.00     0.191 A 
ATOM      4  C   UNL d   1       5.740  -4.592  13.246  0.00  0.00     0.079 A 
ATOM      5  C   UNL d   1       6.032  -5.094  14.060  0.00  0.00     0.011 A 
ATOM      6  C   UNL d   1       6.979  -5.404  14.143  0.00  0.00     0.081 A 
ATOM      7  C   UNL d   1       5.339  -5.286  14.813  0.00  0.00     0.077 A 
ATOM      8  C   UNL d   1       7.298  -5.928  14.985  0.00  0.00     0.074 A 
ATOM      9  C   UNL d   1       5.636  -5.808  15.664  0.00  0.00     0.073 A 
ATOM     10  C   UNL d   1       6.622  -6.131  15.751  0.00  0.00     0.071 A 
ENDROOT
BRANCH   3  11
ATOM     11  C   UNL d   1       7.997  -4.520  11.867  0.00  0.00    -0.024 A 
ATOM     12  C   UNL d   1       8.519  -3.667  11.874  0.00  0.00     0.049 A 
ATOM     13  C   UNL d   1       9.174  -3.476  11.143  0.00  0.00     0.099 A 
ATOM     14  C   UNL d   1       9.307  -4.137  10.405  0.00  0.00     0.098 A 
ATOM     15  C   UNL d   1       8.785  -4.990  10.398  0.00  0.00     0.040 A 
ATOM     16  C   UNL d   1       8.130  -5.181  11.129  0.00  0.00     0.013 A 
BRANCH  13  17
ATOM     17  O   UNL d   1       9.697  -2.623  11.151  0.00  0.00    -0.358 OA
ATOM     18  H   UNL d   1       9.699  -2.257  10.650  0.00  0.00     0.217 HD
ENDBRANCH  13  17
BRANCH  14  19
ATOM     19  O   UNL d   1       9.962  -3.946   9.674  0.00  0.00    -0.358 OA
ATOM     20  H   UNL d   1      10.565  -4.060   9.761  0.00  0.00     0.217 HD
ENDBRANCH  14  19
ENDBRANCH   3  11
BRANCH   2  21
ATOM     21  O   UNL d   1       6.103  -3.899  11.701  0.00  0.00    -0.392 OA
ATOM     22  H   UNL d   1       6.409  -3.389  11.525  0.00  0.00     0.210 HD
ENDBRANCH   2  21
BRANCH   7  23
ATOM     23  O   UNL d   1       4.395  -4.970  14.719  0.00  0.00    -0.360 OA
ATOM     24  H   UNL d   1       4.277  -4.372  14.612  0.00  0.00     0.217 HD
ENDBRANCH   7  23
BRANCH  10  25
ATOM     25  O   UNL d   1       6.917  -6.633  16.564  0.00  0.00    -0.361 OA
ATOM     26  H   UNL d   1       6.782  -6.417  17.128  0.00  0.00     0.217 HD
ENDBRANCH  10  25
TORSDOF 6
ENDMDL
MODEL 5
REMARK VINA RESULT:    -7.939     31.595     33.011
REMARK INTER + INTRA:          -6.044
REMARK INTER:                  -9.536
REMARK INTRA:                   3.492
REMARK UNBOUND:                 3.519
REMARK  6 active torsions:
REMARK  status: ('A' for Active; 'I' for Inactive)
REMARK    1  A    between atoms: O_2  and  C_7 
REMARK    2  A    between atoms: O_3  and  C_13 
REMARK    3  A    between atoms: O_4  and  C_18 
REMARK    4  A    between atoms: O_5  and  C_19 
REMARK    5  A    between atoms: O_6  and  C_21 
REMARK    6  A    between atoms: C_8  and  C_12 
ROOT
ATOM      1  O   UNL d   1       6.925  -5.469   9.323  0.00  0.00    -0.338 OA
ATOM      2  C   UNL d   1       5.686  -5.195  10.501  0.00  0.00     0.156 A 
ATOM      3  C   UNL d   1       5.963  -5.507   9.592  0.00  0.00     0.191 A 
ATOM      4  C   UNL d   1       6.370  -4.845  11.140  0.00  0.00     0.079 A 
ATOM      5  C   UNL d   1       7.333  -4.807  10.870  0.00  0.00     0.011 A 
ATOM      6  C   UNL d   1       7.610  -5.119   9.962  0.00  0.00     0.081 A 
ATOM      7  C   UNL d   1       8.035  -4.440  11.546  0.00  0.00     0.077 A 
ATOM      8  C   UNL d   1       8.609  -5.085   9.666  0.00  0.00     0.074 A 
ATOM      9  C   UNL d   1       9.039  -4.397  11.273  0.00  0.00     0.073 A 
ATOM     10  C   UNL d   1       9.328  -4.722  10.327  0.00  0.00     0.071 A 
ENDROOT
BRANCH   3  11
ATOM     11  C   UNL d   1       5.278  -5.857   8.953  0.00  0.00    -0.024 A 
ATOM     12  C   UNL d   1       5.127  -6.842   8.872  0.00  0.00     0.049 A 
ATOM     13  C   UNL d   1       4.442  -7.192   8.233  0.00  0.00     0.099 A 
ATOM     14  C   UNL d   1       3.909  -6.557   7.675  0.00  0.00     0.098 A 
ATOM     15  C   UNL d   1       4.060  -5.572   7.756  0.00  0.00     0.040 A 
ATOM     16  C   UNL d   1       4.745  -5.222   8.395  0.00  0.00     0.013 A 
BRANCH  13  17
ATOM     17  O   UNL d   1       4.291  -8.178   8.153  0.00  0.00    -0.358 OA
ATOM     18  H   UNL d   1       4.554  -8.566   8.558  0.00  0.00     0.217 HD
ENDBRANCH  13  17
BRANCH  14  19
ATOM     19  O   UNL d   1       3.224  -6.907   7.036  0.00  0.00    -0.358 OA
ATOM     20  H   UNL d   1       2.782  -7.294   7.236  0.00  0.00     0.217 HD
ENDBRANCH  14  19
ENDBRANCH   3  11
BRANCH   2  21
ATOM     21  O   UNL d   1       4.723  -5.233  10.770  0.00  0.00    -0.392 OA
ATOM     22  H   UNL d   1       4.280  -5.242  10.337  0.00  0.00     0.210 HD
ENDBRANCH   2  21
BRANCH   7  23
ATOM     23  O   UNL d   1       7.746  -4.130  12.452  0.00  0.00    -0.360 OA
ATOM     24  H   UNL d   1       7.257  -4.393  12.728  0.00  0.00     0.217 HD
ENDBRANCH   7  23
BRANCH  10  25
ATOM     25  O   UNL d   1      10.289  -4.685  10.054  0.00  0.00    -0.361 OA
ATOM     26  H   UNL d   1      10.720  -4.963  10.400  0.00  0.00     0.217 HD
ENDBRANCH  10  25
TORSDOF 6
ENDMDL
