MODEL 1
REMARK VINA RESULT:   -14.952      0.000      0.000
REMARK INTER + INTRA:         -17.110
REMARK INTER:                 -18.430
REMARK INTRA:                   1.319
REMARK UNBOUND:                 1.338
REMARK  6 active torsions:
REMARK  status: ('A' for Active; 'I' for Inactive)
REMARK    1  A    between atoms: C_22  and  O_1 
REMARK    2  A    between atoms: C_24  and  O_2 
REMARK    3  A    between atoms: O_3  and  C_30 
REMARK    4  A    between atoms: O_4  and  C_33 
REMARK    5  A    between atoms: C_14  and  C_30 
REMARK    6  A    between atoms: C_19  and  C_33 
ROOT
ATOM      1  C   UNL d   1      34.842   6.978   0.673  0.00  0.00    -0.028 A 
ATOM      2  C   UNL d   1      35.203   7.908   0.741  0.00  0.00     0.007 A 
ATOM      3  C   UNL d   1      35.371   8.350   1.670  0.00  0.00    -0.033 A 
ATOM      4  C   UNL d   1      34.686   6.567  -0.225  0.00  0.00    -0.013 A 
ATOM      5  C   UNL d   1      35.161   7.816   2.538  0.00  0.00     0.007 A 
ATOM      6  C   UNL d   1      34.624   6.426   1.528  0.00  0.00     0.011 A 
ATOM      7  C   UNL d   1      34.890   7.086  -1.055  0.00  0.00    -0.069 A 
ATOM      8  C   UNL d   1      34.784   6.847   2.467  0.00  0.00     0.007 A 
ATOM      9  C   UNL d   1      35.328   8.255   3.517  0.00  0.00     0.010 A 
ATOM     10  C   UNL d   1      34.733   6.672  -1.998  0.00  0.00     0.038 A 
ATOM     11  C   UNL d   1      35.408   8.427  -0.089  0.00  0.00     0.033 A 
ATOM     12  C   UNL d   1      35.764   9.360   1.719  0.00  0.00     0.044 A 
ATOM     13  C   UNL d   1      34.309   5.598  -0.280  0.00  0.00     0.016 A 
ATOM     14  C   UNL d   1      34.357   5.704  -2.077  0.00  0.00     0.053 A 
ATOM     15  C   UNL d   1      34.493   6.083   0.950  0.00  0.00     0.016 C 
ATOM     16  C   UNL d   1      34.143   5.163  -1.212  0.00  0.00     0.022 A 
ATOM     17  C   UNL d   1      35.719   9.263   3.591  0.00  0.00     0.157 A 
ATOM     18  C   UNL d   1      35.252   8.016  -0.987  0.00  0.00    -0.022 A 
ATOM     19  C   UNL d   1      35.939   9.820   2.686  0.00  0.00     0.148 A 
ATOM     20  C   UNL d   1      35.574   8.862   0.835  0.00  0.00     0.016 C 
ATOM     21  C   UNL d   1      34.391   5.815   0.364  0.00  0.00     0.021 C 
ATOM     22  C   UNL d   1      34.962   7.254  -2.883  0.00  0.00    -0.005 A 
ATOM     23  C   UNL d   1      34.184   5.250  -3.047  0.00  0.00     0.021 A 
ATOM     24  C   UNL d   1      34.798   6.822  -3.865  0.00  0.00    -0.014 A 
ATOM     25  C   UNL d   1      35.000   7.416   3.953  0.00  0.00     0.020 C 
ATOM     26  C   UNL d   1      34.406   5.813  -3.948  0.00  0.00     0.006 A 
ATOM     27  C   UNL d   1      35.323   8.183  -2.796  0.00  0.00     0.011 C 
ATOM     28  C   UNL d   1      35.006   7.350  -4.688  0.00  0.00     0.010 C 
ENDROOT
BRANCH   9  29
ATOM     29  C   UNL d   1      35.298   8.188   4.514  0.00  0.00     0.176 C 
BRANCH  29  30
ATOM     30  O   UNL d   1      35.463   7.310   4.962  0.00  0.00    -0.400 OA
ATOM     31  H   UNL d   1      35.564   6.802   4.621  0.00  0.00     0.209 HD
ENDBRANCH  29  30
ENDBRANCH   9  29
BRANCH  17  32
ATOM     32  O   UNL d   1      35.877   9.678   4.487  0.00  0.00    -0.392 OA
ATOM     33  H   UNL d   1      36.456   9.758   4.694  0.00  0.00     0.210 HD
ENDBRANCH  17  32
BRANCH  19  34
ATOM     34  O   UNL d   1      36.301  10.751   2.742  0.00  0.00    -0.393 OA
ATOM     35  H   UNL d   1      36.777  10.876   3.119  0.00  0.00     0.210 HD
ENDBRANCH  19  34
BRANCH  14  36
ATOM     36  C   UNL d   1      33.996   4.774  -2.153  0.00  0.00     0.149 C 
ATOM     37  O   UNL d   1      34.623   3.996  -2.190  0.00  0.00    -0.649 OA
BRANCH  36  38
ATOM     38  O   UNL d   1      33.009   4.622  -2.191  0.00  0.00    -0.776 OA
ATOM     39  H   UNL d   1      32.787   4.058  -2.318  0.00  0.00     0.167 HD
ENDBRANCH  36  38
ENDBRANCH  14  36
TORSDOF 6
ENDMDL
MODEL 2
REMARK VINA RESULT:   -14.398      0.999      5.736
REMARK INTER + INTRA:         -16.427
REMARK INTER:                 -17.735
REMARK INTRA:                   1.308
REMARK UNBOUND:                 1.338
REMARK  6 active torsions:
REMARK  status: ('A' for Active; 'I' for Inactive)
REMARK    1  A    between atoms: C_22  and  O_1 
REMARK    2  A    between atoms: C_24  and  O_2 
REMARK    3  A    between atoms: O_3  and  C_30 
REMARK    4  A    between atoms: O_4  and  C_33 
REMARK    5  A    between atoms: C_14  and  C_30 
REMARK    6  A    between atoms: C_19  and  C_33 
ROOT
ATOM      1  C   UNL d   1      34.792   6.890   0.435  0.00  0.00    -0.028 A 
ATOM      2  C   UNL d   1      34.949   7.291  -0.468  0.00  0.00     0.007 A 
ATOM      3  C   UNL d   1      34.772   6.742  -1.335  0.00  0.00    -0.033 A 
ATOM      4  C   UNL d   1      34.966   7.429   1.259  0.00  0.00    -0.013 A 
ATOM      5  C   UNL d   1      34.426   5.762  -1.261  0.00  0.00     0.007 A 
ATOM      6  C   UNL d   1      34.446   5.913   0.533  0.00  0.00     0.011 A 
ATOM      7  C   UNL d   1      35.298   8.369   1.180  0.00  0.00    -0.069 A 
ATOM      8  C   UNL d   1      34.262   5.345  -0.321  0.00  0.00     0.007 A 
ATOM      9  C   UNL d   1      34.234   5.171  -2.151  0.00  0.00     0.010 A 
ATOM     10  C   UNL d   1      35.484   8.943   2.029  0.00  0.00     0.038 A 
ATOM     11  C   UNL d   1      35.281   8.231  -0.546  0.00  0.00     0.033 A 
ATOM     12  C   UNL d   1      34.950   7.198  -2.303  0.00  0.00     0.044 A 
ATOM     13  C   UNL d   1      34.798   6.997   2.192  0.00  0.00     0.016 A 
ATOM     14  C   UNL d   1      35.323   8.532   2.973  0.00  0.00     0.053 A 
ATOM     15  C   UNL d   1      34.544   6.221   1.136  0.00  0.00     0.016 C 
ATOM     16  C   UNL d   1      34.977   7.553   3.055  0.00  0.00     0.022 A 
ATOM     17  C   UNL d   1      34.405   5.605  -3.129  0.00  0.00     0.157 A 
ATOM     18  C   UNL d   1      35.455   8.770   0.278  0.00  0.00    -0.022 A 
ATOM     19  C   UNL d   1      34.765   6.626  -3.207  0.00  0.00     0.148 A 
ATOM     20  C   UNL d   1      35.104   7.682  -1.405  0.00  0.00     0.016 C 
ATOM     21  C   UNL d   1      34.658   6.573   1.674  0.00  0.00     0.021 C 
ATOM     22  C   UNL d   1      35.844   9.960   1.919  0.00  0.00    -0.005 A 
ATOM     23  C   UNL d   1      35.510   9.110   3.872  0.00  0.00     0.021 A 
ATOM     24  C   UNL d   1      36.038  10.558   2.804  0.00  0.00    -0.014 A 
ATOM     25  C   UNL d   1      33.953   4.399  -1.581  0.00  0.00     0.020 C 
ATOM     26  C   UNL d   1      35.870  10.130   3.787  0.00  0.00     0.006 A 
ATOM     27  C   UNL d   1      35.996  10.345   1.008  0.00  0.00     0.011 C 
ATOM     28  C   UNL d   1      36.370  11.497   2.713  0.00  0.00     0.010 C 
ENDROOT
BRANCH   9  29
ATOM     29  C   UNL d   1      33.941   4.315  -2.577  0.00  0.00     0.176 C 
BRANCH  29  30
ATOM     30  O   UNL d   1      33.563   3.580  -2.015  0.00  0.00    -0.400 OA
ATOM     31  H   UNL d   1      33.922   3.104  -1.845  0.00  0.00     0.209 HD
ENDBRANCH  29  30
ENDBRANCH   9  29
BRANCH  17  32
ATOM     32  O   UNL d   1      34.232   5.070  -3.956  0.00  0.00    -0.392 OA
ATOM     33  H   UNL d   1      34.425   5.278  -4.507  0.00  0.00     0.210 HD
ENDBRANCH  17  32
BRANCH  19  34
ATOM     34  O   UNL d   1      34.926   7.037  -4.104  0.00  0.00    -0.393 OA
ATOM     35  H   UNL d   1      34.603   7.537  -4.279  0.00  0.00     0.210 HD
ENDBRANCH  19  34
BRANCH  14  36
ATOM     36  C   UNL d   1      35.168   8.138   3.879  0.00  0.00     0.149 C 
ATOM     37  O   UNL d   1      35.905   7.645   4.341  0.00  0.00    -0.649 OA
BRANCH  36  38
ATOM     38  O   UNL d   1      34.278   8.237   4.322  0.00  0.00    -0.776 OA
ATOM     39  H   UNL d   1      33.809   7.865   4.162  0.00  0.00     0.167 HD
ENDBRANCH  36  38
ENDBRANCH  14  36
TORSDOF 6
ENDMDL
MODEL 3
REMARK VINA RESULT:   -13.953      1.212      2.658
REMARK INTER + INTRA:         -15.878
REMARK INTER:                 -17.188
REMARK INTRA:                   1.310
REMARK UNBOUND:                 1.338
REMARK  6 active torsions:
REMARK  status: ('A' for Active; 'I' for Inactive)
REMARK    1  A    between atoms: C_22  and  O_1 
REMARK    2  A    between atoms: C_24  and  O_2 
REMARK    3  A    between atoms: O_3  and  C_30 
REMARK    4  A    between atoms: O_4  and  C_33 
REMARK    5  A    between atoms: C_14  and  C_30 
REMARK    6  A    between atoms: C_19  and  C_33 
ROOT
ATOM      1  C   UNL d   1      35.067   7.678  -0.070  0.00  0.00    -0.028 A 
ATOM      2  C   UNL d   1      34.788   7.048   0.654  0.00  0.00     0.007 A 
ATOM      3  C   UNL d   1      34.841   7.328   1.656  0.00  0.00    -0.033 A 
ATOM      4  C   UNL d   1      35.011   7.396  -1.028  0.00  0.00    -0.013 A 
ATOM      5  C   UNL d   1      35.189   8.277   1.906  0.00  0.00     0.007 A 
ATOM      6  C   UNL d   1      35.419   8.631   0.157  0.00  0.00     0.011 A 
ATOM      7  C   UNL d   1      34.675   6.483  -1.261  0.00  0.00    -0.069 A 
ATOM      8  C   UNL d   1      35.481   8.933   1.152  0.00  0.00     0.007 A 
ATOM      9  C   UNL d   1      35.254   8.591   2.944  0.00  0.00     0.010 A 
ATOM     10  C   UNL d   1      34.611   6.174  -2.254  0.00  0.00     0.038 A 
ATOM     11  C   UNL d   1      34.452   6.136   0.421  0.00  0.00     0.033 A 
ATOM     12  C   UNL d   1      34.532   6.628   2.425  0.00  0.00     0.044 A 
ATOM     13  C   UNL d   1      35.306   8.063  -1.772  0.00  0.00     0.016 A 
ATOM     14  C   UNL d   1      34.900   6.825  -3.014  0.00  0.00     0.053 A 
ATOM     15  C   UNL d   1      35.408   8.506  -0.516  0.00  0.00     0.016 C 
ATOM     16  C   UNL d   1      35.250   7.776  -2.771  0.00  0.00     0.022 A 
ATOM     17  C   UNL d   1      34.950   7.908   3.729  0.00  0.00     0.157 A 
ATOM     18  C   UNL d   1      34.395   5.853  -0.537  0.00  0.00    -0.022 A 
ATOM     19  C   UNL d   1      34.587   6.920   3.468  0.00  0.00     0.148 A 
ATOM     20  C   UNL d   1      34.506   6.417   1.415  0.00  0.00     0.016 C 
ATOM     21  C   UNL d   1      35.371   8.322  -1.141  0.00  0.00     0.021 C 
ATOM     22  C   UNL d   1      34.243   5.180  -2.482  0.00  0.00    -0.005 A 
ATOM     23  C   UNL d   1      34.842   6.526  -4.056  0.00  0.00     0.021 A 
ATOM     24  C   UNL d   1      34.176   4.858  -3.516  0.00  0.00    -0.014 A 
ATOM     25  C   UNL d   1      35.609   9.480   2.655  0.00  0.00     0.020 C 
ATOM     26  C   UNL d   1      34.478   5.536  -4.308  0.00  0.00     0.006 A 
ATOM     27  C   UNL d   1      33.967   4.563  -1.744  0.00  0.00     0.011 C 
ATOM     28  C   UNL d   1      33.838   3.943  -3.738  0.00  0.00     0.010 C 
ENDROOT
BRANCH   9  29
ATOM     29  C   UNL d   1      35.481   9.284   3.628  0.00  0.00     0.176 C 
BRANCH  29  30
ATOM     30  O   UNL d   1      35.427  10.254   3.394  0.00  0.00    -0.400 OA
ATOM     31  H   UNL d   1      35.129  10.647   3.770  0.00  0.00     0.209 HD
ENDBRANCH  29  30
ENDBRANCH   9  29
BRANCH  17  32
ATOM     32  O   UNL d   1      35.005   8.187   4.688  0.00  0.00    -0.392 OA
ATOM     33  H   UNL d   1      34.622   7.936   5.106  0.00  0.00     0.210 HD
ENDBRANCH  17  32
BRANCH  19  34
ATOM     34  O   UNL d   1      34.304   6.282   4.185  0.00  0.00    -0.393 OA
ATOM     35  H   UNL d   1      34.527   5.703   4.191  0.00  0.00     0.210 HD
ENDBRANCH  19  34
BRANCH  14  36
ATOM     36  C   UNL d   1      35.178   7.449  -3.744  0.00  0.00     0.149 C 
ATOM     37  O   UNL d   1      34.507   8.065  -4.157  0.00  0.00    -0.649 OA
BRANCH  36  38
ATOM     38  O   UNL d   1      36.126   7.458  -4.061  0.00  0.00    -0.776 OA
ATOM     39  H   UNL d   1      36.347   7.952  -4.365  0.00  0.00     0.167 HD
ENDBRANCH  36  38
ENDBRANCH  14  36
TORSDOF 6
ENDMDL
MODEL 4
REMARK VINA RESULT:   -13.706      1.201      6.258
REMARK INTER + INTRA:         -15.573
REMARK INTER:                 -16.893
REMARK INTRA:                   1.320
REMARK UNBOUND:                 1.338
REMARK  6 active torsions:
REMARK  status: ('A' for Active; 'I' for Inactive)
REMARK    1  A    between atoms: C_22  and  O_1 
REMARK    2  A    between atoms: C_24  and  O_2 
REMARK    3  A    between atoms: O_3  and  C_30 
REMARK    4  A    between atoms: O_4  and  C_33 
REMARK    5  A    between atoms: C_14  and  C_30 
REMARK    6  A    between atoms: C_19  and  C_33 
ROOT
ATOM      1  C   UNL d   1      35.124   7.683  -0.242  0.00  0.00    -0.028 A 
ATOM      2  C   UNL d   1      34.771   6.761  -0.081  0.00  0.00     0.007 A 
ATOM      3  C   UNL d   1      34.530   6.135  -0.878  0.00  0.00    -0.033 A 
ATOM      4  C   UNL d   1      35.351   8.274   0.532  0.00  0.00    -0.013 A 
ATOM      5  C   UNL d   1      34.659   6.472  -1.854  0.00  0.00     0.007 A 
ATOM      6  C   UNL d   1      35.261   8.042  -1.210  0.00  0.00     0.011 A 
ATOM      7  C   UNL d   1      35.225   7.943   1.467  0.00  0.00    -0.069 A 
ATOM      8  C   UNL d   1      35.027   7.432  -2.022  0.00  0.00     0.007 A 
ATOM      9  C   UNL d   1      34.415   5.837  -2.700  0.00  0.00     0.010 A 
ATOM     10  C   UNL d   1      35.457   8.546   2.284  0.00  0.00     0.038 A 
ATOM     11  C   UNL d   1      34.645   6.430   0.854  0.00  0.00     0.033 A 
ATOM     12  C   UNL d   1      34.149   5.139  -0.679  0.00  0.00     0.044 A 
ATOM     13  C   UNL d   1      35.718   9.231   0.348  0.00  0.00     0.016 A 
ATOM     14  C   UNL d   1      35.826   9.507   2.124  0.00  0.00     0.053 A 
ATOM     15  C   UNL d   1      35.436   8.498  -0.731  0.00  0.00     0.016 C 
ATOM     16  C   UNL d   1      35.957   9.852   1.150  0.00  0.00     0.022 A 
ATOM     17  C   UNL d   1      34.032   4.838  -2.526  0.00  0.00     0.157 A 
ATOM     18  C   UNL d   1      34.872   7.021   1.628  0.00  0.00    -0.022 A 
ATOM     19  C   UNL d   1      33.898   4.486  -1.508  0.00  0.00     0.148 A 
ATOM     20  C   UNL d   1      34.407   5.811   0.060  0.00  0.00     0.016 C 
ATOM     21  C   UNL d   1      35.584   8.883  -0.226  0.00  0.00     0.021 C 
ATOM     22  C   UNL d   1      35.312   8.166   3.289  0.00  0.00    -0.005 A 
ATOM     23  C   UNL d   1      36.074  10.155   2.959  0.00  0.00     0.021 A 
ATOM     24  C   UNL d   1      35.554   8.794   4.140  0.00  0.00    -0.014 A 
ATOM     25  C   UNL d   1      34.692   6.563  -3.330  0.00  0.00     0.020 C 
ATOM     26  C   UNL d   1      35.938   9.795   3.974  0.00  0.00     0.006 A 
ATOM     27  C   UNL d   1      34.958   7.240   3.431  0.00  0.00     0.011 C 
ATOM     28  C   UNL d   1      35.424   8.453   5.071  0.00  0.00     0.010 C 
ENDROOT
BRANCH   9  29
ATOM     29  C   UNL d   1      34.358   5.691  -3.688  0.00  0.00     0.176 C 
BRANCH  29  30
ATOM     30  O   UNL d   1      34.981   6.175  -4.302  0.00  0.00    -0.400 OA
ATOM     31  H   UNL d   1      35.434   6.529  -4.068  0.00  0.00     0.209 HD
ENDBRANCH  29  30
ENDBRANCH   9  29
BRANCH  17  32
ATOM     32  O   UNL d   1      33.804   4.244  -3.297  0.00  0.00    -0.392 OA
ATOM     33  H   UNL d   1      34.071   3.687  -3.350  0.00  0.00     0.210 HD
ENDBRANCH  17  32
BRANCH  19  34
ATOM     34  O   UNL d   1      33.546   3.566  -1.336  0.00  0.00    -0.393 OA
ATOM     35  H   UNL d   1      33.100   3.331  -1.698  0.00  0.00     0.210 HD
ENDBRANCH  19  34
BRANCH  14  36
ATOM     36  C   UNL d   1      36.179  10.430   1.971  0.00  0.00     0.149 C 
ATOM     37  O   UNL d   1      37.165  10.582   1.900  0.00  0.00    -0.649 OA
BRANCH  36  38
ATOM     38  O   UNL d   1      35.548  11.201   1.890  0.00  0.00    -0.776 OA
ATOM     39  H   UNL d   1      35.098  11.279   2.309  0.00  0.00     0.167 HD
ENDBRANCH  36  38
ENDBRANCH  14  36
TORSDOF 6
ENDMDL
MODEL 5
REMARK VINA RESULT:   -12.608      1.277      1.945
REMARK INTER + INTRA:         -14.218
REMARK INTER:                 -15.528
REMARK INTRA:                   1.309
REMARK UNBOUND:                 1.338
REMARK  6 active torsions:
REMARK  status: ('A' for Active; 'I' for Inactive)
REMARK    1  A    between atoms: C_22  and  O_1 
REMARK    2  A    between atoms: C_24  and  O_2 
REMARK    3  A    between atoms: O_3  and  C_30 
REMARK    4  A    between atoms: O_4  and  C_33 
REMARK    5  A    between atoms: C_14  and  C_30 
REMARK    6  A    between atoms: C_19  and  C_33 
ROOT
ATOM      1  C   UNL d   1      35.026   7.506  -0.284  0.00  0.00    -0.028 A 
ATOM      2  C   UNL d   1      35.374   8.263   0.269  0.00  0.00     0.007 A 
ATOM      3  C   UNL d   1      35.309   8.239   1.309  0.00  0.00    -0.033 A 
ATOM      4  C   UNL d   1      35.095   7.543  -1.281  0.00  0.00    -0.013 A 
ATOM      5  C   UNL d   1      34.878   7.415   1.777  0.00  0.00     0.007 A 
ATOM      6  C   UNL d   1      34.591   6.673   0.163  0.00  0.00     0.011 A 
ATOM      7  C   UNL d   1      35.510   8.338  -1.725  0.00  0.00    -0.069 A 
ATOM      8  C   UNL d   1      34.517   6.626   1.201  0.00  0.00     0.007 A 
ATOM      9  C   UNL d   1      34.800   7.367   2.859  0.00  0.00     0.010 A 
ATOM     10  C   UNL d   1      35.589   8.391  -2.762  0.00  0.00     0.038 A 
ATOM     11  C   UNL d   1      35.789   9.057  -0.174  0.00  0.00     0.033 A 
ATOM     12  C   UNL d   1      35.693   9.072   1.888  0.00  0.00     0.044 A 
ATOM     13  C   UNL d   1      34.729   6.747  -1.844  0.00  0.00     0.016 A 
ATOM     14  C   UNL d   1      35.229   7.606  -3.345  0.00  0.00     0.053 A 
ATOM     15  C   UNL d   1      34.605   6.630  -0.520  0.00  0.00     0.016 C 
ATOM     16  C   UNL d   1      34.796   6.779  -2.883  0.00  0.00     0.022 A 
ATOM     17  C   UNL d   1      35.177   8.188   3.459  0.00  0.00     0.157 A 
ATOM     18  C   UNL d   1      35.857   9.095  -1.171  0.00  0.00    -0.022 A 
ATOM     19  C   UNL d   1      35.626   9.046   2.971  0.00  0.00     0.148 A 
ATOM     20  C   UNL d   1      35.723   9.029   0.858  0.00  0.00     0.016 C 
ATOM     21  C   UNL d   1      34.649   6.655  -1.171  0.00  0.00     0.021 C 
ATOM     22  C   UNL d   1      36.043   9.262  -3.220  0.00  0.00    -0.005 A 
ATOM     23  C   UNL d   1      35.300   7.639  -4.428  0.00  0.00     0.021 A 
ATOM     24  C   UNL d   1      36.125   9.318  -4.301  0.00  0.00    -0.014 A 
ATOM     25  C   UNL d   1      34.360   6.472   2.791  0.00  0.00     0.020 C 
ATOM     26  C   UNL d   1      35.750   8.501  -4.909  0.00  0.00     0.006 A 
ATOM     27  C   UNL d   1      36.385  10.011  -2.651  0.00  0.00     0.011 C 
ATOM     28  C   UNL d   1      36.542  10.117  -4.734  0.00  0.00     0.010 C 
ENDROOT
BRANCH   9  29
ATOM     29  C   UNL d   1      34.520   6.884   3.688  0.00  0.00     0.176 C 
BRANCH  29  30
ATOM     30  O   UNL d   1      33.802   6.189   3.644  0.00  0.00    -0.400 OA
ATOM     31  H   UNL d   1      33.338   6.248   3.237  0.00  0.00     0.209 HD
ENDBRANCH  29  30
ENDBRANCH   9  29
BRANCH  17  32
ATOM     32  O   UNL d   1      35.110   8.155   4.456  0.00  0.00    -0.392 OA
ATOM     33  H   UNL d   1      35.291   7.647   4.763  0.00  0.00     0.210 HD
ENDBRANCH  17  32
BRANCH  19  34
ATOM     34  O   UNL d   1      35.976   9.809   3.515  0.00  0.00    -0.393 OA
ATOM     35  H   UNL d   1      36.532  10.051   3.387  0.00  0.00     0.210 HD
ENDBRANCH  19  34
BRANCH  14  36
ATOM     36  C   UNL d   1      34.885   6.853  -3.906  0.00  0.00     0.149 C 
ATOM     37  O   UNL d   1      35.498   6.112  -4.177  0.00  0.00    -0.649 OA
BRANCH  36  38
ATOM     38  O   UNL d   1      33.928   6.841  -4.194  0.00  0.00    -0.776 OA
ATOM     39  H   UNL d   1      33.524   6.465  -3.912  0.00  0.00     0.167 HD
ENDBRANCH  36  38
ENDBRANCH  14  36
TORSDOF 6
ENDMDL
