MODEL 1
REMARK VINA RESULT:    -6.757      0.000      0.000
REMARK INTER + INTRA:          -7.504
REMARK INTER:                  -8.676
REMARK INTRA:                   1.173
REMARK UNBOUND:                 1.030
REMARK  6 active torsions:
REMARK  status: ('A' for Active; 'I' for Inactive)
REMARK    1  A    between atoms: O_1  and  C_8 
REMARK    2  A    between atoms: O_2  and  C_9 
REMARK    3  A    between atoms: O_3  and  C_13 
REMARK    4  A    between atoms: C_5  and  C_11 
REMARK    5  A    between atoms: C_11  and  C_12 
REMARK    6  A    between atoms: C_12  and  C_13 
ROOT
ATOM      1  C   UNL d   1      34.606   6.403   0.155  0.00  0.00    -0.033 A 
ATOM      2  C   UNL d   1      34.240   5.841   0.898  0.00  0.00     0.050 A 
ATOM      3  C   UNL d   1      35.014   7.293   0.357  0.00  0.00     0.014 A 
ATOM      4  C   UNL d   1      34.282   6.170   1.841  0.00  0.00     0.099 A 
ATOM      5  C   UNL d   1      34.690   7.060   2.042  0.00  0.00     0.098 A 
ATOM      6  C   UNL d   1      35.057   7.622   1.300  0.00  0.00     0.040 A 
ENDROOT
BRANCH   1   7
ATOM      7  C   UNL d   1      34.564   6.074  -0.788  0.00  0.00     0.018 C 
BRANCH   7   8
ATOM      8  C   UNL d   1      34.190   5.167  -0.985  0.00  0.00     0.082 C 
BRANCH   8   9
ATOM      9  C   UNL d   1      33.976   4.908  -1.927  0.00  0.00     0.165 C 
ATOM     10  O   UNL d   1      34.661   5.028  -2.646  0.00  0.00    -0.647 OA
BRANCH   9  11
ATOM     11  O   UNL d   1      33.078   4.530  -2.150  0.00  0.00    -0.773 OA
ATOM     12  H   UNL d   1      33.030   3.949  -2.361  0.00  0.00     0.167 HD
ENDBRANCH   9  11
ENDBRANCH   8   9
ENDBRANCH   7   8
ENDBRANCH   1   7
BRANCH   4  13
ATOM     13  O   UNL d   1      33.916   5.609   2.583  0.00  0.00    -0.358 OA
ATOM     14  H   UNL d   1      33.887   5.837   3.159  0.00  0.00     0.217 HD
ENDBRANCH   4  13
BRANCH   5  15
ATOM     15  O   UNL d   1      34.732   7.389   2.986  0.00  0.00    -0.358 OA
ATOM     16  H   UNL d   1      34.995   7.039   3.425  0.00  0.00     0.217 HD
ENDBRANCH   5  15
TORSDOF 6
ENDMDL
MODEL 2
REMARK VINA RESULT:    -6.562      1.683      4.148
REMARK INTER + INTRA:          -7.258
REMARK INTER:                  -8.384
REMARK INTRA:                   1.126
REMARK UNBOUND:                 1.030
REMARK  6 active torsions:
REMARK  status: ('A' for Active; 'I' for Inactive)
REMARK    1  A    between atoms: O_1  and  C_8 
REMARK    2  A    between atoms: O_2  and  C_9 
REMARK    3  A    between atoms: O_3  and  C_13 
REMARK    4  A    between atoms: C_5  and  C_11 
REMARK    5  A    between atoms: C_11  and  C_12 
REMARK    6  A    between atoms: C_12  and  C_13 
ROOT
ATOM      1  C   UNL d   1      35.112   7.545   1.191  0.00  0.00    -0.033 A 
ATOM      2  C   UNL d   1      34.706   6.848   1.782  0.00  0.00     0.050 A 
ATOM      3  C   UNL d   1      35.084   7.437   0.198  0.00  0.00     0.014 A 
ATOM      4  C   UNL d   1      34.271   6.042   1.378  0.00  0.00     0.099 A 
ATOM      5  C   UNL d   1      34.243   5.935   0.385  0.00  0.00     0.098 A 
ATOM      6  C   UNL d   1      34.649   6.632  -0.206  0.00  0.00     0.040 A 
ENDROOT
BRANCH   1   7
ATOM      7  C   UNL d   1      35.547   8.350   1.595  0.00  0.00     0.018 C 
BRANCH   7   8
ATOM      8  C   UNL d   1      36.544   8.407   1.646  0.00  0.00     0.082 C 
BRANCH   8   9
ATOM      9  C   UNL d   1      36.979   8.886   2.409  0.00  0.00     0.165 C 
ATOM     10  O   UNL d   1      36.762   9.846   2.585  0.00  0.00    -0.647 OA
BRANCH   9  11
ATOM     11  O   UNL d   1      37.631   8.405   2.995  0.00  0.00    -0.773 OA
ATOM     12  H   UNL d   1      37.444   8.165   3.535  0.00  0.00     0.167 HD
ENDBRANCH   9  11
ENDBRANCH   8   9
ENDBRANCH   7   8
ENDBRANCH   1   7
BRANCH   4  13
ATOM     13  O   UNL d   1      33.865   5.345   1.969  0.00  0.00    -0.358 OA
ATOM     14  H   UNL d   1      34.146   4.797   2.041  0.00  0.00     0.217 HD
ENDBRANCH   4  13
BRANCH   5  15
ATOM     15  O   UNL d   1      33.808   5.129  -0.019  0.00  0.00    -0.358 OA
ATOM     16  H   UNL d   1      33.281   4.908   0.222  0.00  0.00     0.217 HD
ENDBRANCH   5  15
TORSDOF 6
ENDMDL
MODEL 3
REMARK VINA RESULT:    -6.422     29.491     31.104
REMARK INTER + INTRA:          -7.081
REMARK INTER:                  -8.227
REMARK INTRA:                   1.146
REMARK UNBOUND:                 1.030
REMARK  6 active torsions:
REMARK  status: ('A' for Active; 'I' for Inactive)
REMARK    1  A    between atoms: O_1  and  C_8 
REMARK    2  A    between atoms: O_2  and  C_9 
REMARK    3  A    between atoms: O_3  and  C_13 
REMARK    4  A    between atoms: C_5  and  C_11 
REMARK    5  A    between atoms: C_11  and  C_12 
REMARK    6  A    between atoms: C_12  and  C_13 
ROOT
ATOM      1  C   UNL d   1      24.120 -10.922  23.984  0.00  0.00    -0.033 A 
ATOM      2  C   UNL d   1      24.084 -11.549  23.205  0.00  0.00     0.050 A 
ATOM      3  C   UNL d   1      24.494 -10.002  23.868  0.00  0.00     0.014 A 
ATOM      4  C   UNL d   1      24.423 -11.255  22.311  0.00  0.00     0.099 A 
ATOM      5  C   UNL d   1      24.797 -10.335  22.196  0.00  0.00     0.098 A 
ATOM      6  C   UNL d   1      24.832  -9.708  22.974  0.00  0.00     0.040 A 
ENDROOT
BRANCH   1   7
ATOM      7  C   UNL d   1      23.781 -11.216  24.878  0.00  0.00     0.018 C 
BRANCH   7   8
ATOM      8  C   UNL d   1      23.245 -10.587  25.441  0.00  0.00     0.082 C 
BRANCH   8   9
ATOM      9  C   UNL d   1      22.571 -10.944  26.087  0.00  0.00     0.165 C 
ATOM     10  O   UNL d   1      22.848 -11.609  26.781  0.00  0.00    -0.647 OA
BRANCH   9  11
ATOM     11  O   UNL d   1      21.621 -10.637  26.040  0.00  0.00    -0.773 OA
ATOM     12  H   UNL d   1      21.183 -11.017  25.820  0.00  0.00     0.167 HD
ENDBRANCH   9  11
ENDBRANCH   8   9
ENDBRANCH   7   8
ENDBRANCH   1   7
BRANCH   4  13
ATOM     13  O   UNL d   1      24.387 -11.882  21.533  0.00  0.00    -0.358 OA
ATOM     14  H   UNL d   1      24.883 -12.226  21.389  0.00  0.00     0.217 HD
ENDBRANCH   4  13
BRANCH   5  15
ATOM     15  O   UNL d   1      25.135 -10.042  21.302  0.00  0.00    -0.358 OA
ATOM     16  H   UNL d   1      25.162  -9.438  21.163  0.00  0.00     0.217 HD
ENDBRANCH   5  15
TORSDOF 6
ENDMDL
MODEL 4
REMARK VINA RESULT:    -6.322      1.140      1.661
REMARK INTER + INTRA:          -6.955
REMARK INTER:                  -8.176
REMARK INTRA:                   1.221
REMARK UNBOUND:                 1.030
REMARK  6 active torsions:
REMARK  status: ('A' for Active; 'I' for Inactive)
REMARK    1  A    between atoms: O_1  and  C_8 
REMARK    2  A    between atoms: O_2  and  C_9 
REMARK    3  A    between atoms: O_3  and  C_13 
REMARK    4  A    between atoms: C_5  and  C_11 
REMARK    5  A    between atoms: C_11  and  C_12 
REMARK    6  A    between atoms: C_12  and  C_13 
ROOT
ATOM      1  C   UNL d   1      34.525   6.157   0.334  0.00  0.00    -0.033 A 
ATOM      2  C   UNL d   1      34.860   6.994  -0.098  0.00  0.00     0.050 A 
ATOM      3  C   UNL d   1      34.438   6.108   1.329  0.00  0.00     0.014 A 
ATOM      4  C   UNL d   1      35.109   7.782   0.465  0.00  0.00     0.099 A 
ATOM      5  C   UNL d   1      35.022   7.733   1.460  0.00  0.00     0.098 A 
ATOM      6  C   UNL d   1      34.686   6.896   1.892  0.00  0.00     0.040 A 
ENDROOT
BRANCH   1   7
ATOM      7  C   UNL d   1      34.277   5.369  -0.229  0.00  0.00     0.018 C 
BRANCH   7   8
ATOM      8  C   UNL d   1      34.303   5.439  -1.227  0.00  0.00     0.082 C 
BRANCH   8   9
ATOM      9  C   UNL d   1      33.963   4.686  -1.790  0.00  0.00     0.165 C 
ATOM     10  O   UNL d   1      34.033   4.735  -2.786  0.00  0.00    -0.647 OA
BRANCH   9  11
ATOM     11  O   UNL d   1      33.554   3.882  -1.357  0.00  0.00    -0.773 OA
ATOM     12  H   UNL d   1      33.467   3.872  -0.743  0.00  0.00     0.167 HD
ENDBRANCH   9  11
ENDBRANCH   8   9
ENDBRANCH   7   8
ENDBRANCH   1   7
BRANCH   4  13
ATOM     13  O   UNL d   1      35.444   8.620   0.034  0.00  0.00    -0.358 OA
ATOM     14  H   UNL d   1      35.934   8.916   0.271  0.00  0.00     0.217 HD
ENDBRANCH   4  13
BRANCH   5  15
ATOM     15  O   UNL d   1      35.270   8.521   2.024  0.00  0.00    -0.358 OA
ATOM     16  H   UNL d   1      35.023   9.077   1.905  0.00  0.00     0.217 HD
ENDBRANCH   5  15
TORSDOF 6
ENDMDL
MODEL 5
REMARK VINA RESULT:    -6.246     29.229     30.658
REMARK INTER + INTRA:          -6.859
REMARK INTER:                  -7.810
REMARK INTRA:                   0.951
REMARK UNBOUND:                 1.030
REMARK  6 active torsions:
REMARK  status: ('A' for Active; 'I' for Inactive)
REMARK    1  A    between atoms: O_1  and  C_8 
REMARK    2  A    between atoms: O_2  and  C_9 
REMARK    3  A    between atoms: O_3  and  C_13 
REMARK    4  A    between atoms: C_5  and  C_11 
REMARK    5  A    between atoms: C_11  and  C_12 
REMARK    6  A    between atoms: C_12  and  C_13 
ROOT
ATOM      1  C   UNL d   1      24.309 -12.025  22.912  0.00  0.00    -0.033 A 
ATOM      2  C   UNL d   1      24.445 -11.348  22.190  0.00  0.00     0.050 A 
ATOM      3  C   UNL d   1      24.221 -11.731  23.864  0.00  0.00     0.014 A 
ATOM      4  C   UNL d   1      24.494 -10.375  22.419  0.00  0.00     0.099 A 
ATOM      5  C   UNL d   1      24.406 -10.081  23.370  0.00  0.00     0.098 A 
ATOM      6  C   UNL d   1      24.270 -10.759  24.093  0.00  0.00     0.040 A 
ENDROOT
BRANCH   1   7
ATOM      7  C   UNL d   1      24.260 -12.998  22.683  0.00  0.00     0.018 C 
BRANCH   7   8
ATOM      8  C   UNL d   1      25.037 -13.597  22.876  0.00  0.00     0.082 C 
BRANCH   8   9
ATOM      9  C   UNL d   1      25.003 -14.560  22.612  0.00  0.00     0.165 C 
ATOM     10  O   UNL d   1      25.385 -14.852  21.735  0.00  0.00    -0.647 OA
BRANCH   9  11
ATOM     11  O   UNL d   1      24.588 -15.232  23.225  0.00  0.00    -0.773 OA
ATOM     12  H   UNL d   1      24.947 -15.621  23.548  0.00  0.00     0.167 HD
ENDBRANCH   9  11
ENDBRANCH   8   9
ENDBRANCH   7   8
ENDBRANCH   1   7
BRANCH   4  13
ATOM     13  O   UNL d   1      24.631  -9.698  21.696  0.00  0.00    -0.358 OA
ATOM     14  H   UNL d   1      25.189  -9.440  21.615  0.00  0.00     0.217 HD
ENDBRANCH   4  13
BRANCH   5  15
ATOM     15  O   UNL d   1      24.455  -9.109  23.600  0.00  0.00    -0.358 OA
ATOM     16  H   UNL d   1      24.871  -8.745  23.319  0.00  0.00     0.217 HD
ENDBRANCH   5  15
TORSDOF 6
ENDMDL
