MODEL 1
REMARK VINA RESULT:    -9.263      0.000      0.000
REMARK INTER + INTRA:          -6.543
REMARK INTER:                 -10.062
REMARK INTRA:                   3.519
REMARK UNBOUND:                 3.532
REMARK  2 active torsions:
REMARK  status: ('A' for Active; 'I' for Inactive)
REMARK    1  A    between atoms: C_5  and  O_1 
REMARK    2  A    between atoms: C_4  and  C_9 
ROOT
ATOM      1  C   UNL d   1      34.779   7.038   1.049  0.00  0.00     0.028 A 
ATOM      2  C   UNL d   1      35.164   7.880   1.428  0.00  0.00     0.019 A 
ATOM      3  C   UNL d   1      35.175   8.023   2.417  0.00  0.00    -0.003 A 
ATOM      4  C   UNL d   1      34.405   6.340   1.659  0.00  0.00     0.058 A 
ATOM      5  C   UNL d   1      34.802   7.325   3.028  0.00  0.00     0.009 A 
ATOM      6  C   UNL d   1      34.417   6.483   2.649  0.00  0.00     0.038 A 
ATOM      7  C   UNL d   1      34.760   6.874   0.020  0.00  0.00     0.012 A 
ATOM      8  C   UNL d   1      35.557   8.616   0.804  0.00  0.00    -0.019 A 
ATOM      9  C   UNL d   1      35.147   7.597  -0.622  0.00  0.00     0.034 A 
ATOM     10  C   UNL d   1      34.177   5.771   0.869  0.00  0.00     0.046 C 
ATOM     11  C   UNL d   1      35.548   8.474  -0.228  0.00  0.00    -0.087 A 
ATOM     12  C   UNL d   1      35.922   9.174  -0.835  0.00  0.00     0.043 C 
ENDROOT
BRANCH   3  13
ATOM     13  C   UNL d   1      35.560   8.864   2.796  0.00  0.00    -0.018 C 
ATOM     14  C   UNL d   1      34.976   9.664   2.934  0.00  0.00     0.010 C 
ATOM     15  C   UNL d   1      36.530   8.906   3.038  0.00  0.00     0.010 C 
ENDBRANCH   3  13
BRANCH   4  16
ATOM     16  O   UNL d   1      33.968   5.451   1.793  0.00  0.00    -0.390 OA
ATOM     17  H   UNL d   1      34.301   4.930   1.742  0.00  0.00     0.210 HD
ENDBRANCH   4  16
TORSDOF 2
ENDMDL
MODEL 2
REMARK VINA RESULT:    -9.048      1.064      2.275
REMARK INTER + INTRA:          -6.309
REMARK INTER:                  -9.841
REMARK INTRA:                   3.531
REMARK UNBOUND:                 3.532
REMARK  2 active torsions:
REMARK  status: ('A' for Active; 'I' for Inactive)
REMARK    1  A    between atoms: C_5  and  O_1 
REMARK    2  A    between atoms: C_4  and  C_9 
ROOT
ATOM      1  C   UNL d   1      34.709   7.148   2.011  0.00  0.00     0.028 A 
ATOM      2  C   UNL d   1      35.064   7.650   1.223  0.00  0.00     0.019 A 
ATOM      3  C   UNL d   1      35.487   8.547   1.350  0.00  0.00    -0.003 A 
ATOM      4  C   UNL d   1      34.777   7.543   2.927  0.00  0.00     0.058 A 
ATOM      5  C   UNL d   1      35.555   8.942   2.266  0.00  0.00     0.009 A 
ATOM      6  C   UNL d   1      35.199   8.440   3.055  0.00  0.00     0.038 A 
ATOM      7  C   UNL d   1      34.266   6.212   1.894  0.00  0.00     0.012 A 
ATOM      8  C   UNL d   1      35.001   7.252   0.262  0.00  0.00    -0.019 A 
ATOM      9  C   UNL d   1      34.192   5.794   0.943  0.00  0.00     0.034 A 
ATOM     10  C   UNL d   1      34.327   6.735   3.309  0.00  0.00     0.046 C 
ATOM     11  C   UNL d   1      34.562   6.318   0.121  0.00  0.00    -0.087 A 
ATOM     12  C   UNL d   1      34.496   5.926  -0.796  0.00  0.00     0.043 C 
ENDROOT
BRANCH   3  13
ATOM     13  C   UNL d   1      35.842   9.049   0.562  0.00  0.00    -0.018 C 
ATOM     14  C   UNL d   1      35.269   9.727   0.101  0.00  0.00     0.010 C 
ATOM     15  C   UNL d   1      36.771   8.874   0.234  0.00  0.00     0.010 C 
ENDBRANCH   3  13
BRANCH   4  16
ATOM     16  O   UNL d   1      34.610   7.481   3.911  0.00  0.00    -0.390 OA
ATOM     17  H   UNL d   1      35.085   7.392   4.301  0.00  0.00     0.210 HD
ENDBRANCH   4  16
TORSDOF 2
ENDMDL
MODEL 3
REMARK VINA RESULT:    -8.936      1.193      2.670
REMARK INTER + INTRA:          -6.187
REMARK INTER:                  -9.704
REMARK INTRA:                   3.517
REMARK UNBOUND:                 3.532
REMARK  2 active torsions:
REMARK  status: ('A' for Active; 'I' for Inactive)
REMARK    1  A    between atoms: C_5  and  O_1 
REMARK    2  A    between atoms: C_4  and  C_9 
ROOT
ATOM      1  C   UNL d   1      34.727   6.809   0.632  0.00  0.00     0.028 A 
ATOM      2  C   UNL d   1      35.136   7.666   0.946  0.00  0.00     0.019 A 
ATOM      3  C   UNL d   1      35.480   8.329   0.281  0.00  0.00    -0.003 A 
ATOM      4  C   UNL d   1      34.661   6.616  -0.347  0.00  0.00     0.058 A 
ATOM      5  C   UNL d   1      35.415   8.136  -0.698  0.00  0.00     0.009 A 
ATOM      6  C   UNL d   1      35.005   7.279  -1.012  0.00  0.00     0.038 A 
ATOM      7  C   UNL d   1      34.364   6.108   1.312  0.00  0.00     0.012 A 
ATOM      8  C   UNL d   1      35.211   7.881   1.963  0.00  0.00    -0.019 A 
ATOM      9  C   UNL d   1      34.429   6.303   2.333  0.00  0.00     0.034 A 
ATOM     10  C   UNL d   1      34.227   5.739  -0.145  0.00  0.00     0.046 C 
ATOM     11  C   UNL d   1      34.855   7.195   2.661  0.00  0.00    -0.087 A 
ATOM     12  C   UNL d   1      34.922   7.392   3.639  0.00  0.00     0.043 C 
ENDROOT
BRANCH   3  13
ATOM     13  C   UNL d   1      35.889   9.186   0.596  0.00  0.00    -0.018 C 
ATOM     14  C   UNL d   1      35.320  10.000   0.710  0.00  0.00     0.010 C 
ATOM     15  C   UNL d   1      36.868   9.228   0.796  0.00  0.00     0.010 C 
ENDBRANCH   3  13
BRANCH   4  16
ATOM     16  O   UNL d   1      34.387   6.010  -1.094  0.00  0.00    -0.390 OA
ATOM     17  H   UNL d   1      34.733   5.975  -1.608  0.00  0.00     0.210 HD
ENDBRANCH   4  16
TORSDOF 2
ENDMDL
MODEL 4
REMARK VINA RESULT:    -8.479     29.861     31.720
REMARK INTER + INTRA:          -5.690
REMARK INTER:                  -9.256
REMARK INTRA:                   3.566
REMARK UNBOUND:                 3.532
REMARK  2 active torsions:
REMARK  status: ('A' for Active; 'I' for Inactive)
REMARK    1  A    between atoms: C_5  and  O_1 
REMARK    2  A    between atoms: C_4  and  C_9 
ROOT
ATOM      1  C   UNL d   1      23.739 -11.979  24.548  0.00  0.00     0.028 A 
ATOM      2  C   UNL d   1      24.166 -11.624  23.717  0.00  0.00     0.019 A 
ATOM      3  C   UNL d   1      24.221 -10.637  23.564  0.00  0.00    -0.003 A 
ATOM      4  C   UNL d   1      23.367 -11.346  25.228  0.00  0.00     0.058 A 
ATOM      5  C   UNL d   1      23.849 -10.005  24.244  0.00  0.00     0.009 A 
ATOM      6  C   UNL d   1      23.422 -10.360  25.076  0.00  0.00     0.038 A 
ATOM      7  C   UNL d   1      23.674 -13.004  24.721  0.00  0.00     0.012 A 
ATOM      8  C   UNL d   1      24.558 -12.270  22.999  0.00  0.00    -0.019 A 
ATOM      9  C   UNL d   1      24.059 -13.668  24.018  0.00  0.00     0.034 A 
ATOM     10  C   UNL d   1      23.088 -12.121  25.796  0.00  0.00     0.046 C 
ATOM     11  C   UNL d   1      24.504 -13.299  23.151  0.00  0.00    -0.087 A 
ATOM     12  C   UNL d   1      24.877 -13.928  22.469  0.00  0.00     0.043 C 
ENDROOT
BRANCH   3  13
ATOM     13  C   UNL d   1      24.648 -10.282  22.733  0.00  0.00    -0.018 C 
ATOM     14  C   UNL d   1      25.603  -9.987  22.748  0.00  0.00     0.010 C 
ATOM     15  C   UNL d   1      24.119 -10.223  21.886  0.00  0.00     0.010 C 
ENDBRANCH   3  13
BRANCH   4  16
ATOM     16  O   UNL d   1      22.905 -11.186  26.101  0.00  0.00    -0.390 OA
ATOM     17  H   UNL d   1      23.058 -11.523  26.598  0.00  0.00     0.210 HD
ENDBRANCH   4  16
TORSDOF 2
ENDMDL
MODEL 5
REMARK VINA RESULT:    -8.200     30.165     32.043
REMARK INTER + INTRA:          -5.386
REMARK INTER:                  -8.922
REMARK INTRA:                   3.536
REMARK UNBOUND:                 3.532
REMARK  2 active torsions:
REMARK  status: ('A' for Active; 'I' for Inactive)
REMARK    1  A    between atoms: C_5  and  O_1 
REMARK    2  A    between atoms: C_4  and  C_9 
ROOT
ATOM      1  C   UNL d   1      24.238 -11.337  23.745  0.00  0.00     0.028 A 
ATOM      2  C   UNL d   1      23.711 -11.610  24.551  0.00  0.00     0.019 A 
ATOM      3  C   UNL d   1      23.344 -10.914  25.167  0.00  0.00    -0.003 A 
ATOM      4  C   UNL d   1      24.397 -10.368  23.557  0.00  0.00     0.058 A 
ATOM      5  C   UNL d   1      23.504  -9.945  24.979  0.00  0.00     0.009 A 
ATOM      6  C   UNL d   1      24.030  -9.672  24.174  0.00  0.00     0.038 A 
ATOM      7  C   UNL d   1      24.627 -12.051  23.093  0.00  0.00     0.012 A 
ATOM      8  C   UNL d   1      23.537 -12.615  24.760  0.00  0.00    -0.019 A 
ATOM      9  C   UNL d   1      24.465 -13.062  23.283  0.00  0.00     0.034 A 
ATOM     10  C   UNL d   1      24.913 -10.612  22.736  0.00  0.00     0.046 C 
ATOM     11  C   UNL d   1      23.916 -13.346  24.122  0.00  0.00    -0.087 A 
ATOM     12  C   UNL d   1      23.754 -14.314  24.313  0.00  0.00     0.043 C 
ENDROOT
BRANCH   3  13
ATOM     13  C   UNL d   1      22.817 -11.187  25.973  0.00  0.00    -0.018 C 
ATOM     14  C   UNL d   1      23.287 -11.394  26.831  0.00  0.00     0.010 C 
ATOM     15  C   UNL d   1      21.821 -11.253  25.920  0.00  0.00     0.010 C 
ENDBRANCH   3  13
BRANCH   4  16
ATOM     16  O   UNL d   1      24.793  -9.651  22.984  0.00  0.00    -0.390 OA
ATOM     17  H   UNL d   1      24.566  -9.075  23.007  0.00  0.00     0.210 HD
ENDBRANCH   4  16
TORSDOF 2
ENDMDL
