MODEL 1
REMARK VINA RESULT:    -8.815      0.000      0.000
REMARK INTER + INTRA:          -8.682
REMARK INTER:                  -9.681
REMARK INTRA:                   0.999
REMARK UNBOUND:                 1.164
REMARK  3 active torsions:
REMARK  status: ('A' for Active; 'I' for Inactive)
REMARK    1  A    between atoms: O_2  and  C_10 
REMARK    2  A    between atoms: O_4  and  C_13 
REMARK    3  A    between atoms: C_7  and  C_9 
ROOT
ATOM      1  O   UNL d   1      35.320   8.663   2.593  0.00  0.00    -0.309 OA
ATOM      2  O   UNL d   1      34.042   6.045   3.307  0.00  0.00    -0.287 OA
ATOM      3  C   UNL d   1      34.678   7.128   2.114  0.00  0.00     0.081 A 
ATOM      4  C   UNL d   1      35.104   8.000   1.876  0.00  0.00     0.095 A 
ATOM      5  C   UNL d   1      35.110   8.454   3.548  0.00  0.00     0.090 A 
ATOM      6  C   UNL d   1      34.468   6.918   3.069  0.00  0.00     0.190 A 
ATOM      7  C   UNL d   1      34.448   6.428   1.378  0.00  0.00     0.085 A 
ATOM      8  C   UNL d   1      34.684   7.581   3.786  0.00  0.00     0.094 A 
ATOM      9  C   UNL d   1      35.329   8.233   0.886  0.00  0.00     0.075 A 
ATOM     10  C   UNL d   1      35.107   7.548   0.134  0.00  0.00     0.071 A 
ATOM     11  C   UNL d   1      34.664   6.639   0.382  0.00  0.00     0.074 A 
ENDROOT
BRANCH   5  12
ATOM     12  C   UNL d   1      35.325   9.117   4.264  0.00  0.00    -0.002 A 
ATOM     13  C   UNL d   1      36.206   9.073   4.737  0.00  0.00     0.014 A 
ATOM     14  C   UNL d   1      36.421   9.736   5.454  0.00  0.00     0.001 A 
ATOM     15  C   UNL d   1      35.757  10.443   5.698  0.00  0.00     0.000 A 
ATOM     16  C   UNL d   1      34.877  10.486   5.225  0.00  0.00     0.001 A 
ATOM     17  C   UNL d   1      34.661   9.823   4.509  0.00  0.00     0.014 A 
ENDBRANCH   5  12
BRANCH   7  18
ATOM     18  O   UNL d   1      34.022   5.558   1.628  0.00  0.00    -0.360 OA
ATOM     19  H   UNL d   1      34.349   5.129   1.932  0.00  0.00     0.217 HD
ENDBRANCH   7  18
BRANCH  10  20
ATOM     20  O   UNL d   1      35.319   7.761  -0.820  0.00  0.00    -0.361 OA
ATOM     21  H   UNL d   1      35.895   7.927  -0.980  0.00  0.00     0.217 HD
ENDBRANCH  10  20
TORSDOF 3
ENDMDL
MODEL 2
REMARK VINA RESULT:    -8.766     31.118     32.472
REMARK INTER + INTRA:          -8.627
REMARK INTER:                  -9.633
REMARK INTRA:                   1.006
REMARK UNBOUND:                 1.164
REMARK  3 active torsions:
REMARK  status: ('A' for Active; 'I' for Inactive)
REMARK    1  A    between atoms: O_2  and  C_10 
REMARK    2  A    between atoms: O_4  and  C_13 
REMARK    3  A    between atoms: C_7  and  C_9 
ROOT
ATOM      1  O   UNL d   1       6.874  -5.474   9.306  0.00  0.00    -0.309 OA
ATOM      2  O   UNL d   1       6.000  -4.554  12.024  0.00  0.00    -0.287 OA
ATOM      3  C   UNL d   1       7.258  -4.824  10.865  0.00  0.00     0.081 A 
ATOM      4  C   UNL d   1       7.549  -5.131   9.958  0.00  0.00     0.095 A 
ATOM      5  C   UNL d   1       5.907  -5.511   9.559  0.00  0.00     0.090 A 
ATOM      6  C   UNL d   1       6.291  -4.860  11.118  0.00  0.00     0.190 A 
ATOM      7  C   UNL d   1       7.950  -4.464  11.554  0.00  0.00     0.085 A 
ATOM      8  C   UNL d   1       5.616  -5.204  10.466  0.00  0.00     0.094 A 
ATOM      9  C   UNL d   1       8.552  -5.099   9.680  0.00  0.00     0.075 A 
ATOM     10  C   UNL d   1       9.262  -4.742  10.354  0.00  0.00     0.071 A 
ATOM     11  C   UNL d   1       8.959  -4.423  11.297  0.00  0.00     0.074 A 
ENDROOT
BRANCH   5  12
ATOM     12  C   UNL d   1       5.232  -5.854   8.907  0.00  0.00    -0.002 A 
ATOM     13  C   UNL d   1       5.094  -6.839   8.802  0.00  0.00     0.014 A 
ATOM     14  C   UNL d   1       4.418  -7.182   8.149  0.00  0.00     0.001 A 
ATOM     15  C   UNL d   1       3.881  -6.541   7.602  0.00  0.00     0.000 A 
ATOM     16  C   UNL d   1       4.019  -5.556   7.707  0.00  0.00     0.001 A 
ATOM     17  C   UNL d   1       4.694  -5.213   8.359  0.00  0.00     0.014 A 
ENDBRANCH   5  12
BRANCH   7  18
ATOM     18  O   UNL d   1       7.647  -4.160  12.458  0.00  0.00    -0.360 OA
ATOM     19  H   UNL d   1       7.042  -4.124  12.586  0.00  0.00     0.217 HD
ENDBRANCH   7  18
BRANCH  10  20
ATOM     20  O   UNL d   1      10.228  -4.708  10.097  0.00  0.00    -0.361 OA
ATOM     21  H   UNL d   1      10.549  -4.182  10.169  0.00  0.00     0.217 HD
ENDBRANCH  10  20
TORSDOF 3
ENDMDL
MODEL 3
REMARK VINA RESULT:    -8.489      0.860      2.036
REMARK INTER + INTRA:          -8.318
REMARK INTER:                  -9.319
REMARK INTRA:                   1.001
REMARK UNBOUND:                 1.164
REMARK  3 active torsions:
REMARK  status: ('A' for Active; 'I' for Inactive)
REMARK    1  A    between atoms: O_2  and  C_10 
REMARK    2  A    between atoms: O_4  and  C_13 
REMARK    3  A    between atoms: C_7  and  C_9 
ROOT
ATOM      1  O   UNL d   1      34.812   8.210   3.241  0.00  0.00    -0.309 OA
ATOM      2  O   UNL d   1      35.671   9.695   0.780  0.00  0.00    -0.287 OA
ATOM      3  C   UNL d   1      35.100   8.244   1.533  0.00  0.00     0.081 A 
ATOM      4  C   UNL d   1      34.813   7.749   2.354  0.00  0.00     0.095 A 
ATOM      5  C   UNL d   1      35.096   9.166   3.308  0.00  0.00     0.090 A 
ATOM      6  C   UNL d   1      35.385   9.200   1.601  0.00  0.00     0.190 A 
ATOM      7  C   UNL d   1      35.107   7.777   0.603  0.00  0.00     0.085 A 
ATOM      8  C   UNL d   1      35.383   9.661   2.488  0.00  0.00     0.094 A 
ATOM      9  C   UNL d   1      34.514   6.752   2.300  0.00  0.00     0.075 A 
ATOM     10  C   UNL d   1      34.513   6.266   1.379  0.00  0.00     0.071 A 
ATOM     11  C   UNL d   1      34.812   6.781   0.525  0.00  0.00     0.074 A 
ENDROOT
BRANCH   5  12
ATOM     12  C   UNL d   1      35.095   9.627   4.195  0.00  0.00    -0.002 A 
ATOM     13  C   UNL d   1      35.928   9.652   4.748  0.00  0.00     0.014 A 
ATOM     14  C   UNL d   1      35.926  10.113   5.635  0.00  0.00     0.001 A 
ATOM     15  C   UNL d   1      35.091  10.549   5.970  0.00  0.00     0.000 A 
ATOM     16  C   UNL d   1      34.258  10.524   5.418  0.00  0.00     0.001 A 
ATOM     17  C   UNL d   1      34.259  10.063   4.531  0.00  0.00     0.014 A 
ENDBRANCH   5  12
BRANCH   7  18
ATOM     18  O   UNL d   1      35.395   8.282  -0.211  0.00  0.00    -0.360 OA
ATOM     19  H   UNL d   1      35.963   8.195  -0.444  0.00  0.00     0.217 HD
ENDBRANCH   7  18
BRANCH  10  20
ATOM     20  O   UNL d   1      34.228   5.309   1.316  0.00  0.00    -0.361 OA
ATOM     21  H   UNL d   1      33.669   5.139   1.523  0.00  0.00     0.217 HD
ENDBRANCH  10  20
TORSDOF 3
ENDMDL
MODEL 4
REMARK VINA RESULT:    -8.460      1.752      4.421
REMARK INTER + INTRA:          -8.285
REMARK INTER:                  -9.694
REMARK INTRA:                   1.409
REMARK UNBOUND:                 1.164
REMARK  3 active torsions:
REMARK  status: ('A' for Active; 'I' for Inactive)
REMARK    1  A    between atoms: O_2  and  C_10 
REMARK    2  A    between atoms: O_4  and  C_13 
REMARK    3  A    between atoms: C_7  and  C_9 
ROOT
ATOM      1  O   UNL d   1      35.403   8.411   0.946  0.00  0.00    -0.309 OA
ATOM      2  O   UNL d   1      34.240   5.680   0.516  0.00  0.00    -0.287 OA
ATOM      3  C   UNL d   1      34.673   6.975   1.581  0.00  0.00     0.081 A 
ATOM      4  C   UNL d   1      35.061   7.886   1.724  0.00  0.00     0.095 A 
ATOM      5  C   UNL d   1      35.358   8.027   0.024  0.00  0.00     0.090 A 
ATOM      6  C   UNL d   1      34.628   6.590   0.659  0.00  0.00     0.190 A 
ATOM      7  C   UNL d   1      34.312   6.416   2.382  0.00  0.00     0.085 A 
ATOM      8  C   UNL d   1      34.970   7.116  -0.119  0.00  0.00     0.094 A 
ATOM      9  C   UNL d   1      35.115   8.300   2.679  0.00  0.00     0.075 A 
ATOM     10  C   UNL d   1      34.760   7.758   3.495  0.00  0.00     0.071 A 
ATOM     11  C   UNL d   1      34.356   6.810   3.345  0.00  0.00     0.074 A 
ENDROOT
BRANCH   5  12
ATOM     12  C   UNL d   1      35.700   8.553  -0.755  0.00  0.00    -0.002 A 
ATOM     13  C   UNL d   1      35.461   8.279  -1.687  0.00  0.00     0.014 A 
ATOM     14  C   UNL d   1      35.804   8.805  -2.465  0.00  0.00     0.001 A 
ATOM     15  C   UNL d   1      36.385   9.604  -2.312  0.00  0.00     0.000 A 
ATOM     16  C   UNL d   1      36.624   9.877  -1.380  0.00  0.00     0.001 A 
ATOM     17  C   UNL d   1      36.282   9.352  -0.602  0.00  0.00     0.014 A 
ENDBRANCH   5  12
BRANCH   7  18
ATOM     18  O   UNL d   1      33.927   5.506   2.227  0.00  0.00    -0.360 OA
ATOM     19  H   UNL d   1      33.325   5.403   2.333  0.00  0.00     0.217 HD
ENDBRANCH   7  18
BRANCH  10  20
ATOM     20  O   UNL d   1      34.807   8.147   4.415  0.00  0.00    -0.361 OA
ATOM     21  H   UNL d   1      34.419   7.947   4.855  0.00  0.00     0.217 HD
ENDBRANCH  10  20
TORSDOF 3
ENDMDL
MODEL 5
REMARK VINA RESULT:    -8.374      1.542      4.546
REMARK INTER + INTRA:          -8.189
REMARK INTER:                  -9.332
REMARK INTRA:                   1.142
REMARK UNBOUND:                 1.164
REMARK  3 active torsions:
REMARK  status: ('A' for Active; 'I' for Inactive)
REMARK    1  A    between atoms: O_2  and  C_10 
REMARK    2  A    between atoms: O_4  and  C_13 
REMARK    3  A    between atoms: C_7  and  C_9 
ROOT
ATOM      1  O   UNL d   1      34.923   8.900   2.609  0.00  0.00    -0.309 OA
ATOM      2  O   UNL d   1      36.755   7.665   4.638  0.00  0.00    -0.287 OA
ATOM      3  C   UNL d   1      35.772   8.992   4.115  0.00  0.00     0.081 A 
ATOM      4  C   UNL d   1      35.162   9.404   3.439  0.00  0.00     0.095 A 
ATOM      5  C   UNL d   1      35.295   7.985   2.455  0.00  0.00     0.090 A 
ATOM      6  C   UNL d   1      36.144   8.076   3.962  0.00  0.00     0.190 A 
ATOM      7  C   UNL d   1      36.030   9.504   4.985  0.00  0.00     0.085 A 
ATOM      8  C   UNL d   1      35.905   7.573   3.131  0.00  0.00     0.094 A 
ATOM      9  C   UNL d   1      34.766  10.357   3.585  0.00  0.00     0.075 A 
ATOM     10  C   UNL d   1      35.011  10.887   4.448  0.00  0.00     0.071 A 
ATOM     11  C   UNL d   1      35.646  10.458   5.152  0.00  0.00     0.074 A 
ENDROOT
BRANCH   5  12
ATOM     12  C   UNL d   1      35.056   7.481   1.625  0.00  0.00    -0.002 A 
ATOM     13  C   UNL d   1      34.670   6.561   1.691  0.00  0.00     0.014 A 
ATOM     14  C   UNL d   1      34.431   6.058   0.861  0.00  0.00     0.001 A 
ATOM     15  C   UNL d   1      34.578   6.474  -0.036  0.00  0.00     0.000 A 
ATOM     16  C   UNL d   1      34.964   7.394  -0.103  0.00  0.00     0.001 A 
ATOM     17  C   UNL d   1      35.203   7.898   0.727  0.00  0.00     0.014 A 
ENDBRANCH   5  12
BRANCH   7  18
ATOM     18  O   UNL d   1      36.641   9.083   5.654  0.00  0.00    -0.360 OA
ATOM     19  H   UNL d   1      36.896   8.530   5.536  0.00  0.00     0.217 HD
ENDBRANCH   7  18
BRANCH  10  20
ATOM     20  O   UNL d   1      34.637  11.803   4.598  0.00  0.00    -0.361 OA
ATOM     21  H   UNL d   1      34.599  12.031   5.173  0.00  0.00     0.217 HD
ENDBRANCH  10  20
TORSDOF 3
ENDMDL
