MODEL 1
REMARK VINA RESULT:    -9.766      0.000      0.000
REMARK INTER + INTRA:          -4.984
REMARK INTER:                 -15.152
REMARK INTRA:                  10.168
REMARK UNBOUND:                10.492
REMARK  14 active torsions:
REMARK  status: ('A' for Active; 'I' for Inactive)
REMARK    1  A    between atoms: C_15  and  O_1 
REMARK    2  A    between atoms: C_18  and  O_1 
REMARK    3  A    between atoms: C_16  and  O_4 
REMARK    4  A    between atoms: C_20  and  O_5 
REMARK    5  A    between atoms: O_5  and  C_27 
REMARK    6  A    between atoms: C_17  and  O_6 
REMARK    7  A    between atoms: C_19  and  O_7 
REMARK    8  A    between atoms: C_22  and  O_8 
REMARK    9  A    between atoms: C_23  and  O_9 
REMARK   10  A    between atoms: O_10  and  C_25 
REMARK   11  A    between atoms: O_12  and  C_31 
REMARK   12  A    between atoms: O_14  and  C_41 
REMARK   13  A    between atoms: C_21  and  C_25 
REMARK   14  A    between atoms: C_34  and  C_36 
ROOT
ATOM      1  O   UNL d   1      33.460  11.670   4.373  0.00  0.00    -0.348 OA
ATOM      2  C   UNL d   1      32.654  11.583   5.903  0.00  0.00     0.211 A 
ATOM      3  C   UNL d   1      31.960  12.223   5.575  0.00  0.00     0.183 A 
ATOM      4  C   UNL d   1      32.016  12.587   4.645  0.00  0.00     0.180 A 
ATOM      5  C   UNL d   1      33.404  11.306   5.302  0.00  0.00     0.298 A 
ATOM      6  C   UNL d   1      32.765  12.310   4.044  0.00  0.00     0.179 A 
ENDROOT
BRANCH   5   7
ATOM      7  O   UNL d   1      34.098  10.666   5.631  0.00  0.00    -0.318 OA
BRANCH   7   8
ATOM      8  C   UNL d   1      34.726  10.233   4.984  0.00  0.00     0.077 A 
ATOM      9  C   UNL d   1      34.375   9.526   4.305  0.00  0.00     0.075 A 
ATOM     10  C   UNL d   1      35.038   9.082   3.635  0.00  0.00     0.095 A 
ATOM     11  O   UNL d   1      34.693   8.404   2.986  0.00  0.00    -0.309 OA
ATOM     12  C   UNL d   1      36.008   9.326   3.635  0.00  0.00     0.081 A 
ATOM     13  C   UNL d   1      35.318   7.969   2.338  0.00  0.00     0.090 A 
ATOM     14  C   UNL d   1      36.288   8.213   2.338  0.00  0.00     0.094 A 
ATOM     15  C   UNL d   1      36.633   8.891   2.987  0.00  0.00     0.190 A 
ATOM     16  O   UNL d   1      37.602   9.135   2.987  0.00  0.00    -0.287 OA
ATOM     17  C   UNL d   1      36.381  10.031   4.306  0.00  0.00     0.085 A 
ATOM     18  C   UNL d   1      35.737  10.487   4.984  0.00  0.00     0.074 A 
BRANCH  13  19
ATOM     19  C   UNL d   1      34.973   7.291   1.688  0.00  0.00    -0.002 A 
ATOM     20  C   UNL d   1      34.548   6.450   2.022  0.00  0.00     0.017 A 
ATOM     21  C   UNL d   1      34.204   5.772   1.373  0.00  0.00     0.037 A 
ATOM     22  C   UNL d   1      34.285   5.935   0.390  0.00  0.00     0.065 A 
ATOM     23  C   UNL d   1      34.710   6.776   0.056  0.00  0.00     0.037 A 
ATOM     24  C   UNL d   1      35.054   7.455   0.705  0.00  0.00     0.017 A 
BRANCH  22  25
ATOM     25  O   UNL d   1      33.940   5.257  -0.260  0.00  0.00    -0.361 OA
ATOM     26  H   UNL d   1      34.311   5.038  -0.705  0.00  0.00     0.217 HD
ENDBRANCH  22  25
ENDBRANCH  13  19
BRANCH  17  27
ATOM     27  O   UNL d   1      37.353  10.267   4.297  0.00  0.00    -0.360 OA
ATOM     28  H   UNL d   1      37.781   9.819   4.333  0.00  0.00     0.217 HD
ENDBRANCH  17  27
ENDBRANCH   7   8
ENDBRANCH   5   7
BRANCH   2  29
ATOM     29  O   UNL d   1      32.599  11.219   6.833  0.00  0.00    -0.346 OA
BRANCH  29  30
ATOM     30  C   UNL d   1      32.874  11.786   7.609  0.00  0.00     0.292 A 
ATOM     31  O   UNL d   1      33.573  12.491   7.490  0.00  0.00    -0.351 OA
ATOM     32  C   UNL d   1      33.848  13.058   8.266  0.00  0.00     0.152 A 
ATOM     33  C   UNL d   1      33.425  12.920   9.162  0.00  0.00     0.178 A 
ATOM     34  C   UNL d   1      34.547  13.764   8.147  0.00  0.00     0.042 C 
ATOM     35  C   UNL d   1      32.727  12.215   9.281  0.00  0.00     0.183 A 
ATOM     36  C   UNL d   1      32.451  11.648   8.505  0.00  0.00     0.204 A 
BRANCH  33  37
ATOM     37  O   UNL d   1      33.701  13.487   9.938  0.00  0.00    -0.390 OA
ATOM     38  H   UNL d   1      34.103  13.952   9.855  0.00  0.00     0.210 HD
ENDBRANCH  33  37
BRANCH  35  39
ATOM     39  O   UNL d   1      32.303  12.077  10.176  0.00  0.00    -0.390 OA
ATOM     40  H   UNL d   1      32.474  12.429  10.657  0.00  0.00     0.210 HD
ENDBRANCH  35  39
BRANCH  36  41
ATOM     41  O   UNL d   1      31.752  10.942   8.624  0.00  0.00    -0.388 OA
ATOM     42  H   UNL d   1      31.679  10.502   8.193  0.00  0.00     0.210 HD
ENDBRANCH  36  41
ENDBRANCH  29  30
ENDBRANCH   2  29
BRANCH   6  43
ATOM     43  C   UNL d   1      32.821  12.674   3.114  0.00  0.00     0.198 C 
BRANCH  43  44
ATOM     44  O   UNL d   1      33.684  12.628   2.610  0.00  0.00    -0.398 OA
ATOM     45  H   UNL d   1      33.691  12.729   1.998  0.00  0.00     0.209 HD
ENDBRANCH  43  44
ENDBRANCH   6  43
BRANCH   3  46
ATOM     46  O   UNL d   1      31.210  12.499   6.176  0.00  0.00    -0.390 OA
ATOM     47  H   UNL d   1      31.159  12.252   6.742  0.00  0.00     0.210 HD
ENDBRANCH   3  46
BRANCH   4  48
ATOM     48  O   UNL d   1      31.321  13.227   4.316  0.00  0.00    -0.390 OA
ATOM     49  H   UNL d   1      30.721  13.118   4.429  0.00  0.00     0.210 HD
ENDBRANCH   4  48
TORSDOF 14
ENDMDL
MODEL 2
REMARK VINA RESULT:    -9.356      1.180      7.439
REMARK INTER + INTRA:          -4.334
REMARK INTER:                 -14.224
REMARK INTRA:                   9.890
REMARK UNBOUND:                10.492
REMARK  14 active torsions:
REMARK  status: ('A' for Active; 'I' for Inactive)
REMARK    1  A    between atoms: C_15  and  O_1 
REMARK    2  A    between atoms: C_18  and  O_1 
REMARK    3  A    between atoms: C_16  and  O_4 
REMARK    4  A    between atoms: C_20  and  O_5 
REMARK    5  A    between atoms: O_5  and  C_27 
REMARK    6  A    between atoms: C_17  and  O_6 
REMARK    7  A    between atoms: C_19  and  O_7 
REMARK    8  A    between atoms: C_22  and  O_8 
REMARK    9  A    between atoms: C_23  and  O_9 
REMARK   10  A    between atoms: O_10  and  C_25 
REMARK   11  A    between atoms: O_12  and  C_31 
REMARK   12  A    between atoms: O_14  and  C_41 
REMARK   13  A    between atoms: C_21  and  C_25 
REMARK   14  A    between atoms: C_34  and  C_36 
ROOT
ATOM      1  O   UNL d   1      35.944  10.717   3.562  0.00  0.00    -0.348 OA
ATOM      2  C   UNL d   1      35.847   8.991   3.664  0.00  0.00     0.211 A 
ATOM      3  C   UNL d   1      36.845   8.933   3.634  0.00  0.00     0.183 A 
ATOM      4  C   UNL d   1      37.392   9.767   3.568  0.00  0.00     0.180 A 
ATOM      5  C   UNL d   1      35.396   9.883   3.628  0.00  0.00     0.298 A 
ATOM      6  C   UNL d   1      36.942  10.659   3.531  0.00  0.00     0.179 A 
ENDROOT
BRANCH   5   7
ATOM      7  O   UNL d   1      34.399   9.941   3.658  0.00  0.00    -0.318 OA
BRANCH   7   8
ATOM      8  C   UNL d   1      33.956  10.705   4.128  0.00  0.00     0.077 A 
ATOM      9  C   UNL d   1      33.852  10.695   5.165  0.00  0.00     0.075 A 
ATOM     10  C   UNL d   1      33.390  11.496   5.643  0.00  0.00     0.095 A 
ATOM     11  O   UNL d   1      33.294  11.479   6.638  0.00  0.00    -0.309 OA
ATOM     12  C   UNL d   1      33.044  12.276   5.121  0.00  0.00     0.081 A 
ATOM     13  C   UNL d   1      32.852  12.241   7.111  0.00  0.00     0.090 A 
ATOM     14  C   UNL d   1      32.506  13.020   6.589  0.00  0.00     0.094 A 
ATOM     15  C   UNL d   1      32.602  13.038   5.594  0.00  0.00     0.190 A 
ATOM     16  O   UNL d   1      32.256  13.817   5.072  0.00  0.00    -0.287 OA
ATOM     17  C   UNL d   1      33.137  12.307   4.084  0.00  0.00     0.085 A 
ATOM     18  C   UNL d   1      33.596  11.518   3.584  0.00  0.00     0.074 A 
BRANCH  13  19
ATOM     19  C   UNL d   1      32.756  12.224   8.107  0.00  0.00    -0.002 A 
ATOM     20  C   UNL d   1      33.273  12.868   8.671  0.00  0.00     0.017 A 
ATOM     21  C   UNL d   1      33.176  12.850   9.666  0.00  0.00     0.037 A 
ATOM     22  C   UNL d   1      32.563  12.189  10.097  0.00  0.00     0.065 A 
ATOM     23  C   UNL d   1      32.046  11.545   9.533  0.00  0.00     0.037 A 
ATOM     24  C   UNL d   1      32.142  11.562   8.538  0.00  0.00     0.017 A 
BRANCH  22  25
ATOM     25  O   UNL d   1      32.467  12.172  11.093  0.00  0.00    -0.361 OA
ATOM     26  H   UNL d   1      31.918  12.298  11.353  0.00  0.00     0.217 HD
ENDBRANCH  22  25
ENDBRANCH  13  19
BRANCH  17  27
ATOM     27  O   UNL d   1      32.787  13.092   3.572  0.00  0.00    -0.360 OA
ATOM     28  H   UNL d   1      33.071  13.274   3.051  0.00  0.00     0.217 HD
ENDBRANCH  17  27
ENDBRANCH   7   8
ENDBRANCH   5   7
BRANCH   2  29
ATOM     29  O   UNL d   1      35.299   8.157   3.731  0.00  0.00    -0.346 OA
BRANCH  29  30
ATOM     30  C   UNL d   1      35.037   7.663   2.902  0.00  0.00     0.292 A 
ATOM     31  O   UNL d   1      35.286   8.027   2.004  0.00  0.00    -0.351 OA
ATOM     32  C   UNL d   1      35.023   7.534   1.174  0.00  0.00     0.152 A 
ATOM     33  C   UNL d   1      34.513   6.676   1.243  0.00  0.00     0.178 A 
ATOM     34  C   UNL d   1      35.272   7.897   0.277  0.00  0.00     0.042 C 
ATOM     35  C   UNL d   1      34.264   6.313   2.141  0.00  0.00     0.183 A 
ATOM     36  C   UNL d   1      34.526   6.806   2.970  0.00  0.00     0.204 A 
BRANCH  33  37
ATOM     37  O   UNL d   1      34.251   6.183   0.414  0.00  0.00    -0.390 OA
ATOM     38  H   UNL d   1      34.541   5.657   0.261  0.00  0.00     0.210 HD
ENDBRANCH  33  37
BRANCH  35  39
ATOM     39  O   UNL d   1      33.754   5.456   2.209  0.00  0.00    -0.390 OA
ATOM     40  H   UNL d   1      33.537   5.182   1.697  0.00  0.00     0.210 HD
ENDBRANCH  35  39
BRANCH  36  41
ATOM     41  O   UNL d   1      34.278   6.443   3.868  0.00  0.00    -0.388 OA
ATOM     42  H   UNL d   1      33.823   6.708   4.194  0.00  0.00     0.210 HD
ENDBRANCH  36  41
ENDBRANCH  29  30
ENDBRANCH   2  29
BRANCH   6  43
ATOM     43  C   UNL d   1      37.489  11.493   3.465  0.00  0.00     0.198 C 
BRANCH  43  44
ATOM     44  O   UNL d   1      37.220  12.310   3.975  0.00  0.00    -0.398 OA
ATOM     45  H   UNL d   1      37.602  12.798   4.003  0.00  0.00     0.209 HD
ENDBRANCH  43  44
ENDBRANCH   6  43
BRANCH   3  46
ATOM     46  O   UNL d   1      37.295   8.041   3.670  0.00  0.00    -0.390 OA
ATOM     47  H   UNL d   1      37.118   7.588   3.285  0.00  0.00     0.210 HD
ENDBRANCH   3  46
BRANCH   4  48
ATOM     48  O   UNL d   1      38.390   9.709   3.537  0.00  0.00    -0.390 OA
ATOM     49  H   UNL d   1      38.708  10.048   3.127  0.00  0.00     0.210 HD
ENDBRANCH   4  48
TORSDOF 14
ENDMDL
MODEL 3
REMARK VINA RESULT:    -9.190      6.078      8.937
REMARK INTER + INTRA:          -4.071
REMARK INTER:                 -14.294
REMARK INTRA:                  10.223
REMARK UNBOUND:                10.492
REMARK  14 active torsions:
REMARK  status: ('A' for Active; 'I' for Inactive)
REMARK    1  A    between atoms: C_15  and  O_1 
REMARK    2  A    between atoms: C_18  and  O_1 
REMARK    3  A    between atoms: C_16  and  O_4 
REMARK    4  A    between atoms: C_20  and  O_5 
REMARK    5  A    between atoms: O_5  and  C_27 
REMARK    6  A    between atoms: C_17  and  O_6 
REMARK    7  A    between atoms: C_19  and  O_7 
REMARK    8  A    between atoms: C_22  and  O_8 
REMARK    9  A    between atoms: C_23  and  O_9 
REMARK   10  A    between atoms: O_10  and  C_25 
REMARK   11  A    between atoms: O_12  and  C_31 
REMARK   12  A    between atoms: O_14  and  C_41 
REMARK   13  A    between atoms: C_21  and  C_25 
REMARK   14  A    between atoms: C_34  and  C_36 
ROOT
ATOM      1  O   UNL d   1      29.094  13.289   7.128  0.00  0.00    -0.348 OA
ATOM      2  C   UNL d   1      27.454  12.881   7.507  0.00  0.00     0.211 A 
ATOM      3  C   UNL d   1      27.251  12.791   6.532  0.00  0.00     0.183 A 
ATOM      4  C   UNL d   1      27.969  12.949   5.855  0.00  0.00     0.180 A 
ATOM      5  C   UNL d   1      28.375  13.130   7.805  0.00  0.00     0.298 A 
ATOM      6  C   UNL d   1      28.891  13.199   6.153  0.00  0.00     0.179 A 
ENDROOT
BRANCH   5   7
ATOM      7  O   UNL d   1      28.578  13.221   8.780  0.00  0.00    -0.318 OA
BRANCH   7   8
ATOM      8  C   UNL d   1      29.464  12.923   9.136  0.00  0.00     0.077 A 
ATOM      9  C   UNL d   1      30.144  13.622   9.504  0.00  0.00     0.075 A 
ATOM     10  C   UNL d   1      31.063  13.300   9.872  0.00  0.00     0.095 A 
ATOM     11  O   UNL d   1      31.710  13.977  10.224  0.00  0.00    -0.309 OA
ATOM     12  C   UNL d   1      31.303  12.329   9.878  0.00  0.00     0.081 A 
ATOM     13  C   UNL d   1      32.597  13.683  10.581  0.00  0.00     0.090 A 
ATOM     14  C   UNL d   1      32.836  12.712  10.586  0.00  0.00     0.094 A 
ATOM     15  C   UNL d   1      32.190  12.035  10.234  0.00  0.00     0.190 A 
ATOM     16  O   UNL d   1      32.429  11.064  10.240  0.00  0.00    -0.287 OA
ATOM     17  C   UNL d   1      30.639  11.613   9.515  0.00  0.00     0.085 A 
ATOM     18  C   UNL d   1      29.714  11.911   9.141  0.00  0.00     0.074 A 
BRANCH  13  19
ATOM     19  C   UNL d   1      33.244  14.359  10.932  0.00  0.00    -0.002 A 
ATOM     20  C   UNL d   1      32.920  15.111  11.506  0.00  0.00     0.017 A 
ATOM     21  C   UNL d   1      33.567  15.787  11.857  0.00  0.00     0.037 A 
ATOM     22  C   UNL d   1      34.539  15.712  11.635  0.00  0.00     0.065 A 
ATOM     23  C   UNL d   1      34.864  14.960  11.061  0.00  0.00     0.037 A 
ATOM     24  C   UNL d   1      34.216  14.283  10.710  0.00  0.00     0.017 A 
BRANCH  22  25
ATOM     25  O   UNL d   1      35.186  16.388  11.987  0.00  0.00    -0.361 OA
ATOM     26  H   UNL d   1      35.381  16.850  11.621  0.00  0.00     0.217 HD
ENDBRANCH  22  25
ENDBRANCH  13  19
BRANCH  17  27
ATOM     27  O   UNL d   1      30.890  10.645   9.525  0.00  0.00    -0.360 OA
ATOM     28  H   UNL d   1      31.400  10.453   9.228  0.00  0.00     0.217 HD
ENDBRANCH  17  27
ENDBRANCH   7   8
ENDBRANCH   5   7
BRANCH   2  29
ATOM     29  O   UNL d   1      26.735  12.722   8.184  0.00  0.00    -0.346 OA
BRANCH  29  30
ATOM     30  C   UNL d   1      26.039  13.421   8.348  0.00  0.00     0.292 A 
ATOM     31  O   UNL d   1      26.258  14.387   8.210  0.00  0.00    -0.351 OA
ATOM     32  C   UNL d   1      25.562  15.086   8.373  0.00  0.00     0.152 A 
ATOM     33  C   UNL d   1      24.647  14.819   8.675  0.00  0.00     0.178 A 
ATOM     34  C   UNL d   1      25.781  16.052   8.236  0.00  0.00     0.042 C 
ATOM     35  C   UNL d   1      24.428  13.853   8.813  0.00  0.00     0.183 A 
ATOM     36  C   UNL d   1      25.124  13.154   8.649  0.00  0.00     0.204 A 
BRANCH  33  37
ATOM     37  O   UNL d   1      23.951  15.518   8.838  0.00  0.00    -0.390 OA
ATOM     38  H   UNL d   1      23.972  15.862   9.354  0.00  0.00     0.210 HD
ENDBRANCH  33  37
BRANCH  35  39
ATOM     39  O   UNL d   1      23.512  13.586   9.114  0.00  0.00    -0.390 OA
ATOM     40  H   UNL d   1      23.416  13.021   9.351  0.00  0.00     0.210 HD
ENDBRANCH  35  39
BRANCH  36  41
ATOM     41  O   UNL d   1      24.905  12.188   8.787  0.00  0.00    -0.388 OA
ATOM     42  H   UNL d   1      24.811  11.819   8.298  0.00  0.00     0.210 HD
ENDBRANCH  36  41
ENDBRANCH  29  30
ENDBRANCH   2  29
BRANCH   6  43
ATOM     43  C   UNL d   1      29.609  13.358   5.476  0.00  0.00     0.198 C 
BRANCH  43  44
ATOM     44  O   UNL d   1      30.417  12.769   5.456  0.00  0.00    -0.398 OA
ATOM     45  H   UNL d   1      30.818  12.807   4.984  0.00  0.00     0.209 HD
ENDBRANCH  43  44
ENDBRANCH   6  43
BRANCH   3  46
ATOM     46  O   UNL d   1      26.329  12.541   6.234  0.00  0.00    -0.390 OA
ATOM     47  H   UNL d   1      26.066  12.840   5.759  0.00  0.00     0.210 HD
ENDBRANCH   3  46
BRANCH   4  48
ATOM     48  O   UNL d   1      27.766  12.859   4.880  0.00  0.00    -0.390 OA
ATOM     49  H   UNL d   1      27.441  13.299   4.589  0.00  0.00     0.210 HD
ENDBRANCH   4  48
TORSDOF 14
ENDMDL
MODEL 4
REMARK VINA RESULT:    -9.075      2.273      4.536
REMARK INTER + INTRA:          -3.889
REMARK INTER:                 -14.173
REMARK INTRA:                  10.284
REMARK UNBOUND:                10.492
REMARK  14 active torsions:
REMARK  status: ('A' for Active; 'I' for Inactive)
REMARK    1  A    between atoms: C_15  and  O_1 
REMARK    2  A    between atoms: C_18  and  O_1 
REMARK    3  A    between atoms: C_16  and  O_4 
REMARK    4  A    between atoms: C_20  and  O_5 
REMARK    5  A    between atoms: O_5  and  C_27 
REMARK    6  A    between atoms: C_17  and  O_6 
REMARK    7  A    between atoms: C_19  and  O_7 
REMARK    8  A    between atoms: C_22  and  O_8 
REMARK    9  A    between atoms: C_23  and  O_9 
REMARK   10  A    between atoms: O_10  and  C_25 
REMARK   11  A    between atoms: O_12  and  C_31 
REMARK   12  A    between atoms: O_14  and  C_41 
REMARK   13  A    between atoms: C_21  and  C_25 
REMARK   14  A    between atoms: C_34  and  C_36 
ROOT
ATOM      1  O   UNL d   1      35.002  10.212   5.250  0.00  0.00    -0.348 OA
ATOM      2  C   UNL d   1      36.454  10.802   5.987  0.00  0.00     0.211 A 
ATOM      3  C   UNL d   1      35.934  11.536   6.423  0.00  0.00     0.183 A 
ATOM      4  C   UNL d   1      34.948  11.608   6.273  0.00  0.00     0.180 A 
ATOM      5  C   UNL d   1      35.988  10.140   5.400  0.00  0.00     0.298 A 
ATOM      6  C   UNL d   1      34.482  10.946   5.687  0.00  0.00     0.179 A 
ENDROOT
BRANCH   5   7
ATOM      7  O   UNL d   1      36.508   9.405   4.964  0.00  0.00    -0.318 OA
BRANCH   7   8
ATOM      8  C   UNL d   1      36.060   8.798   4.307  0.00  0.00     0.077 A 
ATOM      9  C   UNL d   1      36.136   8.983   3.285  0.00  0.00     0.075 A 
ATOM     10  C   UNL d   1      35.667   8.345   2.610  0.00  0.00     0.095 A 
ATOM     11  O   UNL d   1      35.744   8.529   1.630  0.00  0.00    -0.309 OA
ATOM     12  C   UNL d   1      35.143   7.555   2.930  0.00  0.00     0.081 A 
ATOM     13  C   UNL d   1      35.298   7.924   0.970  0.00  0.00     0.090 A 
ATOM     14  C   UNL d   1      34.775   7.135   1.291  0.00  0.00     0.094 A 
ATOM     15  C   UNL d   1      34.697   6.950   2.270  0.00  0.00     0.190 A 
ATOM     16  O   UNL d   1      34.174   6.160   2.590  0.00  0.00    -0.287 OA
ATOM     17  C   UNL d   1      35.053   7.350   3.947  0.00  0.00     0.085 A 
ATOM     18  C   UNL d   1      35.515   7.975   4.640  0.00  0.00     0.074 A 
BRANCH  13  19
ATOM     19  C   UNL d   1      35.376   8.108  -0.010  0.00  0.00    -0.002 A 
ATOM     20  C   UNL d   1      35.073   7.424  -0.673  0.00  0.00     0.017 A 
ATOM     21  C   UNL d   1      35.151   7.609  -1.652  0.00  0.00     0.037 A 
ATOM     22  C   UNL d   1      35.531   8.478  -1.969  0.00  0.00     0.065 A 
ATOM     23  C   UNL d   1      35.833   9.162  -1.306  0.00  0.00     0.037 A 
ATOM     24  C   UNL d   1      35.756   8.978  -0.326  0.00  0.00     0.017 A 
BRANCH  22  25
ATOM     25  O   UNL d   1      35.608   8.662  -2.949  0.00  0.00    -0.361 OA
ATOM     26  H   UNL d   1      36.021   9.078  -3.154  0.00  0.00     0.217 HD
ENDBRANCH  22  25
ENDBRANCH  13  19
BRANCH  17  27
ATOM     27  O   UNL d   1      34.527   6.557   4.256  0.00  0.00    -0.360 OA
ATOM     28  H   UNL d   1      33.951   6.633   4.474  0.00  0.00     0.217 HD
ENDBRANCH  17  27
ENDBRANCH   7   8
ENDBRANCH   5   7
BRANCH   2  29
ATOM     29  O   UNL d   1      37.440  10.730   6.137  0.00  0.00    -0.346 OA
BRANCH  29  30
ATOM     30  C   UNL d   1      38.066  11.331   5.641  0.00  0.00     0.292 A 
ATOM     31  O   UNL d   1      37.801  11.705   4.753  0.00  0.00    -0.351 OA
ATOM     32  C   UNL d   1      38.428  12.306   4.256  0.00  0.00     0.152 A 
ATOM     33  C   UNL d   1      39.319  12.532   4.648  0.00  0.00     0.178 A 
ATOM     34  C   UNL d   1      38.163  12.681   3.368  0.00  0.00     0.042 C 
ATOM     35  C   UNL d   1      39.585  12.158   5.537  0.00  0.00     0.183 A 
ATOM     36  C   UNL d   1      38.958  11.557   6.033  0.00  0.00     0.204 A 
BRANCH  33  37
ATOM     37  O   UNL d   1      39.946  13.133   4.152  0.00  0.00    -0.390 OA
ATOM     38  H   UNL d   1      40.143  13.660   4.413  0.00  0.00     0.210 HD
ENDBRANCH  33  37
BRANCH  35  39
ATOM     39  O   UNL d   1      40.476  12.384   5.929  0.00  0.00    -0.390 OA
ATOM     40  H   UNL d   1      40.631  12.976   6.027  0.00  0.00     0.210 HD
ENDBRANCH  35  39
BRANCH  36  41
ATOM     41  O   UNL d   1      39.223  11.182   6.921  0.00  0.00    -0.388 OA
ATOM     42  H   UNL d   1      38.788  10.988   7.318  0.00  0.00     0.210 HD
ENDBRANCH  36  41
ENDBRANCH  29  30
ENDBRANCH   2  29
BRANCH   6  43
ATOM     43  C   UNL d   1      33.496  11.018   5.536  0.00  0.00     0.198 C 
BRANCH  43  44
ATOM     44  O   UNL d   1      32.889  10.281   5.834  0.00  0.00    -0.398 OA
ATOM     45  H   UNL d   1      33.128   9.742   6.026  0.00  0.00     0.209 HD
ENDBRANCH  43  44
ENDBRANCH   6  43
BRANCH   3  46
ATOM     46  O   UNL d   1      36.400  12.198   7.010  0.00  0.00    -0.390 OA
ATOM     47  H   UNL d   1      37.019  12.195   7.051  0.00  0.00     0.210 HD
ENDBRANCH   3  46
BRANCH   4  48
ATOM     48  O   UNL d   1      34.428  12.343   6.710  0.00  0.00    -0.390 OA
ATOM     49  H   UNL d   1      34.663  12.916   6.736  0.00  0.00     0.210 HD
ENDBRANCH   4  48
TORSDOF 14
ENDMDL
MODEL 5
REMARK VINA RESULT:    -8.920      1.533      2.092
REMARK INTER + INTRA:          -3.643
REMARK INTER:                 -13.481
REMARK INTRA:                   9.838
REMARK UNBOUND:                10.492
REMARK  14 active torsions:
REMARK  status: ('A' for Active; 'I' for Inactive)
REMARK    1  A    between atoms: C_15  and  O_1 
REMARK    2  A    between atoms: C_18  and  O_1 
REMARK    3  A    between atoms: C_16  and  O_4 
REMARK    4  A    between atoms: C_20  and  O_5 
REMARK    5  A    between atoms: O_5  and  C_27 
REMARK    6  A    between atoms: C_17  and  O_6 
REMARK    7  A    between atoms: C_19  and  O_7 
REMARK    8  A    between atoms: C_22  and  O_8 
REMARK    9  A    between atoms: C_23  and  O_9 
REMARK   10  A    between atoms: O_10  and  C_25 
REMARK   11  A    between atoms: O_12  and  C_31 
REMARK   12  A    between atoms: O_14  and  C_41 
REMARK   13  A    between atoms: C_21  and  C_25 
REMARK   14  A    between atoms: C_34  and  C_36 
ROOT
ATOM      1  O   UNL d   1      32.977  12.951   5.463  0.00  0.00    -0.348 OA
ATOM      2  C   UNL d   1      31.681  12.944   6.613  0.00  0.00     0.211 A 
ATOM      3  C   UNL d   1      31.294  13.758   6.182  0.00  0.00     0.183 A 
ATOM      4  C   UNL d   1      31.748  14.170   5.391  0.00  0.00     0.180 A 
ATOM      5  C   UNL d   1      32.523  12.540   6.254  0.00  0.00     0.298 A 
ATOM      6  C   UNL d   1      32.589  13.766   5.032  0.00  0.00     0.179 A 
ENDROOT
BRANCH   5   7
ATOM      7  O   UNL d   1      32.910  11.725   6.685  0.00  0.00    -0.318 OA
BRANCH   7   8
ATOM      8  C   UNL d   1      33.713  11.282   6.286  0.00  0.00     0.077 A 
ATOM      9  C   UNL d   1      33.603  10.599   5.507  0.00  0.00     0.075 A 
ATOM     10  C   UNL d   1      34.446  10.144   5.099  0.00  0.00     0.095 A 
ATOM     11  O   UNL d   1      34.332   9.489   4.352  0.00  0.00    -0.309 OA
ATOM     12  C   UNL d   1      35.361  10.353   5.445  0.00  0.00     0.081 A 
ATOM     13  C   UNL d   1      35.132   9.044   3.950  0.00  0.00     0.090 A 
ATOM     14  C   UNL d   1      36.047   9.254   4.296  0.00  0.00     0.094 A 
ATOM     15  C   UNL d   1      36.161   9.908   5.043  0.00  0.00     0.190 A 
ATOM     16  O   UNL d   1      37.075  10.118   5.389  0.00  0.00    -0.287 OA
ATOM     17  C   UNL d   1      35.495  11.033   6.223  0.00  0.00     0.085 A 
ATOM     18  C   UNL d   1      34.666  11.500   6.646  0.00  0.00     0.074 A 
BRANCH  13  19
ATOM     19  C   UNL d   1      35.019   8.389   3.203  0.00  0.00    -0.002 A 
ATOM     20  C   UNL d   1      35.189   8.672   2.259  0.00  0.00     0.017 A 
ATOM     21  C   UNL d   1      35.075   8.017   1.513  0.00  0.00     0.037 A 
ATOM     22  C   UNL d   1      34.791   7.079   1.709  0.00  0.00     0.065 A 
ATOM     23  C   UNL d   1      34.621   6.796   2.653  0.00  0.00     0.037 A 
ATOM     24  C   UNL d   1      34.734   7.450   3.400  0.00  0.00     0.017 A 
BRANCH  22  25
ATOM     25  O   UNL d   1      34.677   6.424   0.962  0.00  0.00    -0.361 OA
ATOM     26  H   UNL d   1      35.112   6.377   0.522  0.00  0.00     0.217 HD
ENDBRANCH  22  25
ENDBRANCH  13  19
BRANCH  17  27
ATOM     27  O   UNL d   1      36.414  11.235   6.561  0.00  0.00    -0.360 OA
ATOM     28  H   UNL d   1      36.709  11.747   6.370  0.00  0.00     0.217 HD
ENDBRANCH  17  27
ENDBRANCH   7   8
ENDBRANCH   5   7
BRANCH   2  29
ATOM     29  O   UNL d   1      31.227  12.533   7.403  0.00  0.00    -0.346 OA
BRANCH  29  30
ATOM     30  C   UNL d   1      31.360  12.922   8.315  0.00  0.00     0.292 A 
ATOM     31  O   UNL d   1      32.171  13.474   8.509  0.00  0.00    -0.351 OA
ATOM     32  C   UNL d   1      32.304  13.864   9.420  0.00  0.00     0.152 A 
ATOM     33  C   UNL d   1      31.626  13.700  10.138  0.00  0.00     0.178 A 
ATOM     34  C   UNL d   1      33.115  14.416   9.615  0.00  0.00     0.042 C 
ATOM     35  C   UNL d   1      30.816  13.148   9.943  0.00  0.00     0.183 A 
ATOM     36  C   UNL d   1      30.683  12.759   9.032  0.00  0.00     0.204 A 
BRANCH  33  37
ATOM     37  O   UNL d   1      31.759  14.090  11.049  0.00  0.00    -0.390 OA
ATOM     38  H   UNL d   1      31.476  13.836  11.539  0.00  0.00     0.210 HD
ENDBRANCH  33  37
BRANCH  35  39
ATOM     39  O   UNL d   1      30.138  12.985  10.660  0.00  0.00    -0.390 OA
ATOM     40  H   UNL d   1      30.241  12.550  11.091  0.00  0.00     0.210 HD
ENDBRANCH  35  39
BRANCH  36  41
ATOM     41  O   UNL d   1      29.872  12.206   8.837  0.00  0.00    -0.388 OA
ATOM     42  H   UNL d   1      29.617  11.861   9.285  0.00  0.00     0.210 HD
ENDBRANCH  36  41
ENDBRANCH  29  30
ENDBRANCH   2  29
BRANCH   6  43
ATOM     43  C   UNL d   1      33.043  14.177   4.242  0.00  0.00     0.198 C 
BRANCH  43  44
ATOM     44  O   UNL d   1      33.500  13.595   3.569  0.00  0.00    -0.398 OA
ATOM     45  H   UNL d   1      33.924  13.182   3.753  0.00  0.00     0.209 HD
ENDBRANCH  43  44
ENDBRANCH   6  43
BRANCH   3  46
ATOM     46  O   UNL d   1      30.453  14.162   6.541  0.00  0.00    -0.390 OA
ATOM     47  H   UNL d   1      30.308  14.750   6.405  0.00  0.00     0.210 HD
ENDBRANCH   3  46
BRANCH   4  48
ATOM     48  O   UNL d   1      31.361  14.984   4.960  0.00  0.00    -0.390 OA
ATOM     49  H   UNL d   1      31.167  14.961   4.371  0.00  0.00     0.210 HD
ENDBRANCH   4  48
TORSDOF 14
ENDMDL
