MODEL 1
REMARK VINA RESULT:    -8.598      0.000      0.000
REMARK INTER + INTRA:          -6.080
REMARK INTER:                 -11.398
REMARK INTRA:                   5.317
REMARK UNBOUND:                 5.031
REMARK  6 active torsions:
REMARK  status: ('A' for Active; 'I' for Inactive)
REMARK    1  A    between atoms: O_2  and  C_15 
REMARK    2  A    between atoms: O_3  and  C_17 
REMARK    3  A    between atoms: O_4  and  C_11 
REMARK    4  A    between atoms: O_6  and  C_22 
REMARK    5  A    between atoms: O_7  and  C_20 
REMARK    6  A    between atoms: C_10  and  C_13 
ROOT
ATOM      1  O   UNL d   1      35.710   7.537   1.188  0.00  0.00    -0.309 OA
ATOM      2  O   UNL d   1      34.116   6.577   3.629  0.00  0.00    -0.287 OA
ATOM      3  C   UNL d   1      35.395   7.585   2.936  0.00  0.00     0.084 A 
ATOM      4  C   UNL d   1      35.916   7.900   2.143  0.00  0.00     0.096 A 
ATOM      5  C   UNL d   1      34.950   6.836   1.058  0.00  0.00     0.090 A 
ATOM      6  C   UNL d   1      35.604   7.942   3.846  0.00  0.00     0.119 A 
ATOM      7  C   UNL d   1      34.631   6.885   2.829  0.00  0.00     0.190 A 
ATOM      8  C   UNL d   1      36.647   8.572   2.260  0.00  0.00     0.078 A 
ATOM      9  C   UNL d   1      36.334   8.615   3.963  0.00  0.00     0.136 A 
ATOM     10  C   UNL d   1      34.407   6.508   1.885  0.00  0.00     0.094 A 
ATOM     11  C   UNL d   1      36.856   8.930   3.171  0.00  0.00     0.107 A 
ENDROOT
BRANCH   5  12
ATOM     12  C   UNL d   1      34.744   6.481   0.147  0.00  0.00     0.001 A 
ATOM     13  C   UNL d   1      34.359   5.564   0.044  0.00  0.00     0.053 A 
ATOM     14  C   UNL d   1      34.152   5.208  -0.868  0.00  0.00     0.099 A 
ATOM     15  C   UNL d   1      34.331   5.770  -1.676  0.00  0.00     0.101 A 
ATOM     16  C   UNL d   1      34.716   6.687  -1.573  0.00  0.00     0.040 A 
ATOM     17  C   UNL d   1      34.922   7.042  -0.661  0.00  0.00     0.017 A 
BRANCH  14  18
ATOM     18  O   UNL d   1      33.767   4.291  -0.972  0.00  0.00    -0.358 OA
ATOM     19  H   UNL d   1      33.746   3.906  -0.488  0.00  0.00     0.217 HD
ENDBRANCH  14  18
BRANCH  15  20
ATOM     20  O   UNL d   1      34.124   5.414  -2.587  0.00  0.00    -0.353 OA
ATOM     21  C   UNL d   1      34.360   5.949  -3.398  0.00  0.00     0.210 C 
ENDBRANCH  15  20
ENDBRANCH   5  12
BRANCH   6  22
ATOM     22  O   UNL d   1      35.082   7.627   4.639  0.00  0.00    -0.357 OA
ATOM     23  H   UNL d   1      35.378   7.443   5.152  0.00  0.00     0.218 HD
ENDBRANCH   6  22
BRANCH  11  24
ATOM     24  O   UNL d   1      37.587   9.602   3.288  0.00  0.00    -0.353 OA
ATOM     25  C   UNL d   1      38.138   9.883   2.503  0.00  0.00     0.210 C 
ENDBRANCH  11  24
BRANCH   9  26
ATOM     26  O   UNL d   1      36.543   8.972   4.874  0.00  0.00    -0.351 OA
ATOM     27  C   UNL d   1      35.960   9.674   5.281  0.00  0.00     0.210 C 
ENDBRANCH   9  26
TORSDOF 6
ENDMDL
MODEL 2
REMARK VINA RESULT:    -8.197      1.582      2.647
REMARK INTER + INTRA:          -5.562
REMARK INTER:                 -10.698
REMARK INTRA:                   5.136
REMARK UNBOUND:                 5.031
REMARK  6 active torsions:
REMARK  status: ('A' for Active; 'I' for Inactive)
REMARK    1  A    between atoms: O_2  and  C_15 
REMARK    2  A    between atoms: O_3  and  C_17 
REMARK    3  A    between atoms: O_4  and  C_11 
REMARK    4  A    between atoms: O_6  and  C_22 
REMARK    5  A    between atoms: O_7  and  C_20 
REMARK    6  A    between atoms: C_10  and  C_13 
ROOT
ATOM      1  O   UNL d   1      34.850   8.884   2.655  0.00  0.00    -0.309 OA
ATOM      2  O   UNL d   1      36.771   7.603   4.677  0.00  0.00    -0.287 OA
ATOM      3  C   UNL d   1      35.711   8.940   4.207  0.00  0.00     0.084 A 
ATOM      4  C   UNL d   1      35.085   9.360   3.551  0.00  0.00     0.096 A 
ATOM      5  C   UNL d   1      35.273   7.956   2.440  0.00  0.00     0.090 A 
ATOM      6  C   UNL d   1      35.928   9.409   5.063  0.00  0.00     0.119 A 
ATOM      7  C   UNL d   1      36.146   8.014   4.013  0.00  0.00     0.190 A 
ATOM      8  C   UNL d   1      34.675  10.250   3.751  0.00  0.00     0.078 A 
ATOM      9  C   UNL d   1      35.518  10.299   5.263  0.00  0.00     0.136 A 
ATOM     10  C   UNL d   1      35.926   7.518   3.124  0.00  0.00     0.094 A 
ATOM     11  C   UNL d   1      34.891  10.720   4.607  0.00  0.00     0.107 A 
ENDROOT
BRANCH   5  12
ATOM     12  C   UNL d   1      35.055   7.490   1.583  0.00  0.00     0.001 A 
ATOM     13  C   UNL d   1      35.222   7.946   0.709  0.00  0.00     0.053 A 
ATOM     14  C   UNL d   1      35.003   7.479  -0.148  0.00  0.00     0.099 A 
ATOM     15  C   UNL d   1      34.618   6.557  -0.131  0.00  0.00     0.101 A 
ATOM     16  C   UNL d   1      34.451   6.101   0.743  0.00  0.00     0.040 A 
ATOM     17  C   UNL d   1      34.669   6.567   1.600  0.00  0.00     0.017 A 
BRANCH  14  18
ATOM     18  O   UNL d   1      35.170   7.935  -1.023  0.00  0.00    -0.358 OA
ATOM     19  H   UNL d   1      35.383   7.611  -1.506  0.00  0.00     0.217 HD
ENDBRANCH  14  18
BRANCH  15  20
ATOM     20  O   UNL d   1      34.399   6.090  -0.988  0.00  0.00    -0.353 OA
ATOM     21  C   UNL d   1      34.219   5.107  -0.990  0.00  0.00     0.210 C 
ENDBRANCH  15  20
ENDBRANCH   5  12
BRANCH   6  22
ATOM     22  O   UNL d   1      36.554   8.989   5.720  0.00  0.00    -0.357 OA
ATOM     23  H   UNL d   1      37.146   9.172   5.745  0.00  0.00     0.218 HD
ENDBRANCH   6  22
BRANCH  11  24
ATOM     24  O   UNL d   1      34.481  11.610   4.806  0.00  0.00    -0.353 OA
ATOM     25  C   UNL d   1      33.722  11.946   4.250  0.00  0.00     0.210 C 
ENDBRANCH  11  24
BRANCH   9  26
ATOM     26  O   UNL d   1      35.734  10.769   6.119  0.00  0.00    -0.351 OA
ATOM     27  C   UNL d   1      36.607  11.245   6.221  0.00  0.00     0.210 C 
ENDBRANCH   9  26
TORSDOF 6
ENDMDL
MODEL 3
REMARK VINA RESULT:    -8.134      1.383      6.117
REMARK INTER + INTRA:          -5.480
REMARK INTER:                 -10.940
REMARK INTRA:                   5.460
REMARK UNBOUND:                 5.031
REMARK  6 active torsions:
REMARK  status: ('A' for Active; 'I' for Inactive)
REMARK    1  A    between atoms: O_2  and  C_15 
REMARK    2  A    between atoms: O_3  and  C_17 
REMARK    3  A    between atoms: O_4  and  C_11 
REMARK    4  A    between atoms: O_6  and  C_22 
REMARK    5  A    between atoms: O_7  and  C_20 
REMARK    6  A    between atoms: C_10  and  C_13 
ROOT
ATOM      1  O   UNL d   1      34.817   7.019  -0.869  0.00  0.00    -0.309 OA
ATOM      2  O   UNL d   1      33.882   4.104  -1.081  0.00  0.00    -0.287 OA
ATOM      3  C   UNL d   1      34.390   5.609  -1.860  0.00  0.00     0.084 A 
ATOM      4  C   UNL d   1      34.695   6.559  -1.795  0.00  0.00     0.096 A 
ATOM      5  C   UNL d   1      34.618   6.482   0.001  0.00  0.00     0.090 A 
ATOM      6  C   UNL d   1      34.278   5.180  -2.757  0.00  0.00     0.119 A 
ATOM      7  C   UNL d   1      34.186   5.053  -1.003  0.00  0.00     0.190 A 
ATOM      8  C   UNL d   1      34.888   7.080  -2.627  0.00  0.00     0.078 A 
ATOM      9  C   UNL d   1      34.471   5.701  -3.588  0.00  0.00     0.136 A 
ATOM     10  C   UNL d   1      34.301   5.492  -0.066  0.00  0.00     0.094 A 
ATOM     11  C   UNL d   1      34.776   6.651  -3.523  0.00  0.00     0.107 A 
ENDROOT
BRANCH   5  12
ATOM     12  C   UNL d   1      34.732   6.914   0.896  0.00  0.00     0.001 A 
ATOM     13  C   UNL d   1      34.436   6.436   1.723  0.00  0.00     0.053 A 
ATOM     14  C   UNL d   1      34.549   6.867   2.618  0.00  0.00     0.099 A 
ATOM     15  C   UNL d   1      34.958   7.777   2.686  0.00  0.00     0.101 A 
ATOM     16  C   UNL d   1      35.254   8.255   1.859  0.00  0.00     0.040 A 
ATOM     17  C   UNL d   1      35.141   7.824   0.965  0.00  0.00     0.017 A 
BRANCH  14  18
ATOM     18  O   UNL d   1      34.253   6.389   3.446  0.00  0.00    -0.358 OA
ATOM     19  H   UNL d   1      34.562   5.891   3.643  0.00  0.00     0.217 HD
ENDBRANCH  14  18
BRANCH  15  20
ATOM     20  O   UNL d   1      35.072   8.209   3.581  0.00  0.00    -0.353 OA
ATOM     21  C   UNL d   1      35.073   9.205   3.659  0.00  0.00     0.210 C 
ENDBRANCH  15  20
ENDBRANCH   5  12
BRANCH   6  22
ATOM     22  O   UNL d   1      33.973   4.230  -2.822  0.00  0.00    -0.357 OA
ATOM     23  H   UNL d   1      34.038   3.849  -2.337  0.00  0.00     0.218 HD
ENDBRANCH   6  22
BRANCH  11  24
ATOM     24  O   UNL d   1      34.968   7.173  -4.354  0.00  0.00    -0.353 OA
ATOM     25  C   UNL d   1      35.071   8.166  -4.309  0.00  0.00     0.210 C 
ENDBRANCH  11  24
BRANCH   9  26
ATOM     26  O   UNL d   1      34.358   5.272  -4.485  0.00  0.00    -0.351 OA
ATOM     27  C   UNL d   1      35.024   4.598  -4.803  0.00  0.00     0.210 C 
ENDBRANCH   9  26
TORSDOF 6
ENDMDL
MODEL 4
REMARK VINA RESULT:    -8.008      1.644      5.949
REMARK INTER + INTRA:          -5.317
REMARK INTER:                 -10.515
REMARK INTRA:                   5.198
REMARK UNBOUND:                 5.031
REMARK  6 active torsions:
REMARK  status: ('A' for Active; 'I' for Inactive)
REMARK    1  A    between atoms: O_2  and  C_15 
REMARK    2  A    between atoms: O_3  and  C_17 
REMARK    3  A    between atoms: O_4  and  C_11 
REMARK    4  A    between atoms: O_6  and  C_22 
REMARK    5  A    between atoms: O_7  and  C_20 
REMARK    6  A    between atoms: C_10  and  C_13 
ROOT
ATOM      1  O   UNL d   1      35.515   8.807   2.681  0.00  0.00    -0.309 OA
ATOM      2  O   UNL d   1      34.091   6.204   3.466  0.00  0.00    -0.287 OA
ATOM      3  C   UNL d   1      34.739   7.278   2.218  0.00  0.00     0.084 A 
ATOM      4  C   UNL d   1      35.203   8.125   1.958  0.00  0.00     0.096 A 
ATOM      5  C   UNL d   1      35.341   8.604   3.687  0.00  0.00     0.090 A 
ATOM      6  C   UNL d   1      34.445   6.632   1.513  0.00  0.00     0.119 A 
ATOM      7  C   UNL d   1      34.555   7.055   3.218  0.00  0.00     0.190 A 
ATOM      8  C   UNL d   1      35.373   8.326   0.993  0.00  0.00     0.078 A 
ATOM      9  C   UNL d   1      34.615   6.834   0.548  0.00  0.00     0.136 A 
ATOM     10  C   UNL d   1      34.858   7.721   3.958  0.00  0.00     0.094 A 
ATOM     11  C   UNL d   1      35.079   7.681   0.288  0.00  0.00     0.107 A 
ENDROOT
BRANCH   5  12
ATOM     12  C   UNL d   1      35.636   9.252   4.390  0.00  0.00     0.001 A 
ATOM     13  C   UNL d   1      34.958   9.793   4.887  0.00  0.00     0.053 A 
ATOM     14  C   UNL d   1      35.253  10.441   5.590  0.00  0.00     0.099 A 
ATOM     15  C   UNL d   1      36.226  10.547   5.795  0.00  0.00     0.101 A 
ATOM     16  C   UNL d   1      36.904  10.006   5.297  0.00  0.00     0.040 A 
ATOM     17  C   UNL d   1      36.609   9.358   4.595  0.00  0.00     0.017 A 
BRANCH  14  18
ATOM     18  O   UNL d   1      34.575  10.983   6.087  0.00  0.00    -0.358 OA
ATOM     19  H   UNL d   1      33.971  10.867   6.014  0.00  0.00     0.217 HD
ENDBRANCH  14  18
BRANCH  15  20
ATOM     20  O   UNL d   1      36.521  11.195   6.497  0.00  0.00    -0.353 OA
ATOM     21  C   UNL d   1      37.457  11.546   6.492  0.00  0.00     0.210 C 
ENDBRANCH  15  20
ENDBRANCH   5  12
BRANCH   6  22
ATOM     22  O   UNL d   1      33.981   5.785   1.772  0.00  0.00    -0.357 OA
ATOM     23  H   UNL d   1      33.799   5.385   1.335  0.00  0.00     0.218 HD
ENDBRANCH   6  22
BRANCH  11  24
ATOM     24  O   UNL d   1      35.249   7.882  -0.676  0.00  0.00    -0.353 OA
ATOM     25  C   UNL d   1      35.681   8.745  -0.938  0.00  0.00     0.210 C 
ENDBRANCH  11  24
BRANCH   9  26
ATOM     26  O   UNL d   1      34.321   6.188  -0.157  0.00  0.00    -0.351 OA
ATOM     27  C   UNL d   1      34.686   5.257  -0.165  0.00  0.00     0.210 C 
ENDBRANCH   9  26
TORSDOF 6
ENDMDL
MODEL 5
REMARK VINA RESULT:    -7.566      1.542      2.492
REMARK INTER + INTRA:          -4.747
REMARK INTER:                  -9.958
REMARK INTRA:                   5.211
REMARK UNBOUND:                 5.031
REMARK  6 active torsions:
REMARK  status: ('A' for Active; 'I' for Inactive)
REMARK    1  A    between atoms: O_2  and  C_15 
REMARK    2  A    between atoms: O_3  and  C_17 
REMARK    3  A    between atoms: O_4  and  C_11 
REMARK    4  A    between atoms: O_6  and  C_22 
REMARK    5  A    between atoms: O_7  and  C_20 
REMARK    6  A    between atoms: C_10  and  C_13 
ROOT
ATOM      1  O   UNL d   1      36.322   8.831   2.383  0.00  0.00    -0.309 OA
ATOM      2  O   UNL d   1      34.474   9.825   4.623  0.00  0.00    -0.287 OA
ATOM      3  C   UNL d   1      36.017   9.910   3.761  0.00  0.00     0.084 A 
ATOM      4  C   UNL d   1      36.622   9.588   3.032  0.00  0.00     0.096 A 
ATOM      5  C   UNL d   1      35.379   8.403   2.495  0.00  0.00     0.090 A 
ATOM      6  C   UNL d   1      36.319  10.638   4.377  0.00  0.00     0.119 A 
ATOM      7  C   UNL d   1      35.071   9.496   3.890  0.00  0.00     0.190 A 
ATOM      8  C   UNL d   1      37.529   9.995   2.920  0.00  0.00     0.078 A 
ATOM      9  C   UNL d   1      37.226  11.044   4.264  0.00  0.00     0.136 A 
ATOM     10  C   UNL d   1      34.749   8.738   3.254  0.00  0.00     0.094 A 
ATOM     11  C   UNL d   1      37.831  10.723   3.535  0.00  0.00     0.107 A 
ENDROOT
BRANCH   5  12
ATOM     12  C   UNL d   1      35.081   7.675   1.877  0.00  0.00     0.001 A 
ATOM     13  C   UNL d   1      34.608   6.873   2.242  0.00  0.00     0.053 A 
ATOM     14  C   UNL d   1      34.309   6.145   1.625  0.00  0.00     0.099 A 
ATOM     15  C   UNL d   1      34.483   6.220   0.643  0.00  0.00     0.101 A 
ATOM     16  C   UNL d   1      34.956   7.022   0.278  0.00  0.00     0.040 A 
ATOM     17  C   UNL d   1      35.254   7.749   0.895  0.00  0.00     0.017 A 
BRANCH  14  18
ATOM     18  O   UNL d   1      33.836   5.343   1.989  0.00  0.00    -0.358 OA
ATOM     19  H   UNL d   1      33.287   5.406   2.269  0.00  0.00     0.217 HD
ENDBRANCH  14  18
BRANCH  15  20
ATOM     20  O   UNL d   1      34.184   5.492   0.026  0.00  0.00    -0.353 OA
ATOM     21  C   UNL d   1      34.311   5.589  -0.961  0.00  0.00     0.210 C 
ENDBRANCH  15  20
ENDBRANCH   5  12
BRANCH   6  22
ATOM     22  O   UNL d   1      35.714  10.959   5.105  0.00  0.00    -0.357 OA
ATOM     23  H   UNL d   1      35.945  11.085   5.667  0.00  0.00     0.218 HD
ENDBRANCH   6  22
BRANCH  11  24
ATOM     24  O   UNL d   1      38.737  11.129   3.423  0.00  0.00    -0.353 OA
ATOM     25  C   UNL d   1      39.255  10.971   2.582  0.00  0.00     0.210 C 
ENDBRANCH  11  24
BRANCH   9  26
ATOM     26  O   UNL d   1      37.528  11.772   4.880  0.00  0.00    -0.351 OA
ATOM     27  C   UNL d   1      37.845  11.548   5.801  0.00  0.00     0.210 C 
ENDBRANCH   9  26
TORSDOF 6
ENDMDL
