MODEL 1
REMARK VINA RESULT:   -14.727      0.000      0.000
REMARK INTER + INTRA:         -16.860
REMARK INTER:                 -18.202
REMARK INTRA:                   1.342
REMARK UNBOUND:                 1.310
REMARK  6 active torsions:
REMARK  status: ('A' for Active; 'I' for Inactive)
REMARK    1  A    between atoms: C_22  and  O_1 
REMARK    2  A    between atoms: C_24  and  O_2 
REMARK    3  A    between atoms: O_3  and  C_30 
REMARK    4  A    between atoms: O_4  and  C_33 
REMARK    5  A    between atoms: C_14  and  C_30 
REMARK    6  A    between atoms: C_19  and  C_33 
ROOT
ATOM      1  C   UNL d   1      23.641  33.833 -27.925  0.00  0.00    -0.028 A 
ATOM      2  C   UNL d   1      22.656  33.883 -27.756  0.00  0.00     0.007 A 
ATOM      3  C   UNL d   1      22.180  34.803 -27.643  0.00  0.00    -0.033 A 
ATOM      4  C   UNL d   1      24.084  32.943 -28.031  0.00  0.00    -0.013 A 
ATOM      5  C   UNL d   1      22.736  35.681 -27.708  0.00  0.00     0.007 A 
ATOM      6  C   UNL d   1      24.216  34.697 -27.994  0.00  0.00     0.011 A 
ATOM      7  C   UNL d   1      23.544  32.104 -27.968  0.00  0.00    -0.069 A 
ATOM      8  C   UNL d   1      23.761  35.628 -27.884  0.00  0.00     0.007 A 
ATOM      9  C   UNL d   1      22.261  36.650 -27.594  0.00  0.00     0.010 A 
ATOM     10  C   UNL d   1      23.992  31.169 -28.076  0.00  0.00     0.038 A 
ATOM     11  C   UNL d   1      22.116  33.044 -27.692  0.00  0.00     0.033 A 
ATOM     12  C   UNL d   1      21.111  34.833 -27.460  0.00  0.00     0.044 A 
ATOM     13  C   UNL d   1      25.110  32.906 -28.208  0.00  0.00     0.016 A 
ATOM     14  C   UNL d   1      25.017  31.109 -28.253  0.00  0.00     0.053 A 
ATOM     15  C   UNL d   1      24.585  34.126 -28.076  0.00  0.00     0.016 C 
ATOM     16  C   UNL d   1      25.580  31.983 -28.319  0.00  0.00     0.022 A 
ATOM     17  C   UNL d   1      21.194  36.706 -27.410  0.00  0.00     0.157 A 
ATOM     18  C   UNL d   1      22.560  32.154 -27.798  0.00  0.00    -0.022 A 
ATOM     19  C   UNL d   1      20.615  35.791 -27.342  0.00  0.00     0.148 A 
ATOM     20  C   UNL d   1      21.646  33.960 -27.581  0.00  0.00     0.016 C 
ATOM     21  C   UNL d   1      24.874  33.546 -28.145  0.00  0.00     0.021 C 
ATOM     22  C   UNL d   1      23.386  30.273 -28.003  0.00  0.00    -0.005 A 
ATOM     23  C   UNL d   1      25.506  30.147 -28.369  0.00  0.00     0.021 A 
ATOM     24  C   UNL d   1      23.852  29.301 -28.116  0.00  0.00    -0.014 A 
ATOM     25  C   UNL d   1      23.144  37.102 -27.729  0.00  0.00     0.020 C 
ATOM     26  C   UNL d   1      24.920  29.237 -28.300  0.00  0.00     0.006 A 
ATOM     27  C   UNL d   1      22.402  30.343 -27.833  0.00  0.00     0.011 C 
ATOM     28  C   UNL d   1      23.302  28.468 -28.051  0.00  0.00     0.010 C 
ENDROOT
BRANCH   9  29
ATOM     29  C   UNL d   1      22.322  37.648 -27.570  0.00  0.00     0.176 C 
BRANCH  29  30
ATOM     30  O   UNL d   1      23.093  38.092 -27.116  0.00  0.00    -0.400 OA
ATOM     31  H   UNL d   1      23.236  37.944 -26.531  0.00  0.00     0.209 HD
ENDBRANCH  29  30
ENDBRANCH   9  29
BRANCH  17  32
ATOM     32  O   UNL d   1      20.747  37.593 -27.303  0.00  0.00    -0.392 OA
ATOM     33  H   UNL d   1      20.799  38.023 -27.747  0.00  0.00     0.210 HD
ENDBRANCH  17  32
BRANCH  19  34
ATOM     34  O   UNL d   1      19.630  35.830 -27.173  0.00  0.00    -0.393 OA
ATOM     35  H   UNL d   1      19.344  35.356 -26.894  0.00  0.00     0.210 HD
ENDBRANCH  19  34
BRANCH  14  36
ATOM     36  C   UNL d   1      26.000  31.050 -28.423  0.00  0.00     0.149 C 
ATOM     37  O   UNL d   1      26.349  31.095 -29.359  0.00  0.00    -0.649 OA
BRANCH  36  38
ATOM     38  O   UNL d   1      26.635  30.945 -27.658  0.00  0.00    -0.776 OA
ATOM     39  H   UNL d   1      26.734  31.419 -27.271  0.00  0.00     0.167 HD
ENDBRANCH  36  38
ENDBRANCH  14  36
TORSDOF 6
ENDMDL
MODEL 2
REMARK VINA RESULT:   -14.038      2.051      6.395
REMARK INTER + INTRA:         -16.010
REMARK INTER:                 -17.346
REMARK INTRA:                   1.335
REMARK UNBOUND:                 1.310
REMARK  6 active torsions:
REMARK  status: ('A' for Active; 'I' for Inactive)
REMARK    1  A    between atoms: C_22  and  O_1 
REMARK    2  A    between atoms: C_24  and  O_2 
REMARK    3  A    between atoms: O_3  and  C_30 
REMARK    4  A    between atoms: O_4  and  C_33 
REMARK    5  A    between atoms: C_14  and  C_30 
REMARK    6  A    between atoms: C_19  and  C_33 
ROOT
ATOM      1  C   UNL d   1      23.230  30.914 -27.891  0.00  0.00    -0.028 A 
ATOM      2  C   UNL d   1      23.969  30.280 -28.119  0.00  0.00     0.007 A 
ATOM      3  C   UNL d   1      23.818  29.250 -28.087  0.00  0.00    -0.033 A 
ATOM      4  C   UNL d   1      23.389  31.901 -27.926  0.00  0.00    -0.013 A 
ATOM      5  C   UNL d   1      22.886  28.875 -27.814  0.00  0.00     0.007 A 
ATOM      6  C   UNL d   1      22.290  30.562 -27.616  0.00  0.00     0.011 A 
ATOM      7  C   UNL d   1      24.287  32.253 -28.189  0.00  0.00    -0.069 A 
ATOM      8  C   UNL d   1      22.116  29.536 -27.577  0.00  0.00     0.007 A 
ATOM      9  C   UNL d   1      22.705  27.806 -27.774  0.00  0.00     0.010 A 
ATOM     10  C   UNL d   1      24.468  33.278 -28.231  0.00  0.00     0.038 A 
ATOM     11  C   UNL d   1      24.867  30.633 -28.382  0.00  0.00     0.033 A 
ATOM     12  C   UNL d   1      24.635  28.581 -28.339  0.00  0.00     0.044 A 
ATOM     13  C   UNL d   1      22.609  32.549 -27.686  0.00  0.00     0.016 A 
ATOM     14  C   UNL d   1      23.704  33.945 -27.994  0.00  0.00     0.053 A 
ATOM     15  C   UNL d   1      22.327  31.246 -27.618  0.00  0.00     0.016 C 
ATOM     16  C   UNL d   1      22.768  33.578 -27.720  0.00  0.00     0.022 A 
ATOM     17  C   UNL d   1      23.506  27.118 -28.021  0.00  0.00     0.157 A 
ATOM     18  C   UNL d   1      25.026  31.619 -28.418  0.00  0.00    -0.022 A 
ATOM     19  C   UNL d   1      24.478  27.508 -28.306  0.00  0.00     0.148 A 
ATOM     20  C   UNL d   1      24.713  29.610 -28.349  0.00  0.00     0.016 C 
ATOM     21  C   UNL d   1      22.430  31.889 -27.641  0.00  0.00     0.021 C 
ATOM     22  C   UNL d   1      25.450  33.637 -28.519  0.00  0.00    -0.005 A 
ATOM     23  C   UNL d   1      23.868  35.017 -28.030  0.00  0.00     0.021 A 
ATOM     24  C   UNL d   1      25.639  34.705 -28.562  0.00  0.00    -0.014 A 
ATOM     25  C   UNL d   1      21.760  27.973 -27.490  0.00  0.00     0.020 C 
ATOM     26  C   UNL d   1      24.843  35.399 -28.316  0.00  0.00     0.006 A 
ATOM     27  C   UNL d   1      26.178  32.988 -28.744  0.00  0.00     0.011 C 
ATOM     28  C   UNL d   1      26.541  35.046 -28.826  0.00  0.00     0.010 C 
ENDROOT
BRANCH   9  29
ATOM     29  C   UNL d   1      22.091  27.036 -27.601  0.00  0.00     0.176 C 
BRANCH  29  30
ATOM     30  O   UNL d   1      21.111  27.129 -27.771  0.00  0.00    -0.400 OA
ATOM     31  H   UNL d   1      20.770  26.628 -27.905  0.00  0.00     0.209 HD
ENDBRANCH  29  30
ENDBRANCH   9  29
BRANCH  17  32
ATOM     32  O   UNL d   1      23.351  26.131 -27.987  0.00  0.00    -0.392 OA
ATOM     33  H   UNL d   1      23.290  25.808 -28.513  0.00  0.00     0.210 HD
ENDBRANCH  17  32
BRANCH  19  34
ATOM     34  O   UNL d   1      25.223  26.883 -28.536  0.00  0.00    -0.393 OA
ATOM     35  H   UNL d   1      25.232  26.600 -29.087  0.00  0.00     0.210 HD
ENDBRANCH  19  34
BRANCH  14  36
ATOM     36  C   UNL d   1      22.970  34.585 -27.768  0.00  0.00     0.149 C 
ATOM     37  O   UNL d   1      22.405  34.975 -28.495  0.00  0.00    -0.649 OA
BRANCH  36  38
ATOM     38  O   UNL d   1      22.800  34.835 -26.815  0.00  0.00    -0.776 OA
ATOM     39  H   UNL d   1      22.252  35.073 -26.650  0.00  0.00     0.167 HD
ENDBRANCH  36  38
ENDBRANCH  14  36
TORSDOF 6
ENDMDL
MODEL 3
REMARK VINA RESULT:   -13.705      2.156      4.328
REMARK INTER + INTRA:         -15.600
REMARK INTER:                 -16.960
REMARK INTRA:                   1.360
REMARK UNBOUND:                 1.310
REMARK  6 active torsions:
REMARK  status: ('A' for Active; 'I' for Inactive)
REMARK    1  A    between atoms: C_22  and  O_1 
REMARK    2  A    between atoms: C_24  and  O_2 
REMARK    3  A    between atoms: O_3  and  C_30 
REMARK    4  A    between atoms: O_4  and  C_33 
REMARK    5  A    between atoms: C_14  and  C_30 
REMARK    6  A    between atoms: C_19  and  C_33 
ROOT
ATOM      1  C   UNL d   1      23.265  30.728 -27.884  0.00  0.00    -0.028 A 
ATOM      2  C   UNL d   1      24.185  31.029 -28.137  0.00  0.00     0.007 A 
ATOM      3  C   UNL d   1      24.419  32.042 -28.194  0.00  0.00    -0.033 A 
ATOM      4  C   UNL d   1      23.054  29.752 -27.833  0.00  0.00    -0.013 A 
ATOM      5  C   UNL d   1      23.686  32.752 -27.985  0.00  0.00     0.007 A 
ATOM      6  C   UNL d   1      22.516  31.420 -27.672  0.00  0.00     0.011 A 
ATOM      7  C   UNL d   1      23.763  29.077 -28.035  0.00  0.00    -0.069 A 
ATOM      8  C   UNL d   1      22.728  32.439 -27.722  0.00  0.00     0.007 A 
ATOM      9  C   UNL d   1      23.907  33.813 -28.038  0.00  0.00     0.010 A 
ATOM     10  C   UNL d   1      23.559  28.056 -27.986  0.00  0.00     0.038 A 
ATOM     11  C   UNL d   1      24.894  30.353 -28.338  0.00  0.00     0.033 A 
ATOM     12  C   UNL d   1      25.424  32.344 -28.470  0.00  0.00     0.044 A 
ATOM     13  C   UNL d   1      22.091  29.455 -27.569  0.00  0.00     0.016 A 
ATOM     14  C   UNL d   1      22.603  27.736 -27.724  0.00  0.00     0.053 A 
ATOM     15  C   UNL d   1      22.302  30.772 -27.617  0.00  0.00     0.016 C 
ATOM     16  C   UNL d   1      21.864  28.440 -27.514  0.00  0.00     0.022 A 
ATOM     17  C   UNL d   1      24.905  34.139 -28.312  0.00  0.00     0.157 A 
ATOM     18  C   UNL d   1      24.683  29.377 -28.287  0.00  0.00    -0.022 A 
ATOM     19  C   UNL d   1      25.669  33.400 -28.529  0.00  0.00     0.148 A 
ATOM     20  C   UNL d   1      25.123  31.361 -28.394  0.00  0.00     0.016 C 
ATOM     21  C   UNL d   1      22.164  30.135 -27.584  0.00  0.00     0.021 C 
ATOM     22  C   UNL d   1      24.344  27.342 -28.209  0.00  0.00    -0.005 A 
ATOM     23  C   UNL d   1      22.366  26.678 -27.667  0.00  0.00     0.021 A 
ATOM     24  C   UNL d   1      24.131  26.279 -28.159  0.00  0.00    -0.014 A 
ATOM     25  C   UNL d   1      22.966  34.026 -27.776  0.00  0.00     0.020 C 
ATOM     26  C   UNL d   1      23.136  25.945 -27.886  0.00  0.00     0.006 A 
ATOM     27  C   UNL d   1      25.259  27.661 -28.460  0.00  0.00     0.011 C 
ATOM     28  C   UNL d   1      24.848  25.612 -28.362  0.00  0.00     0.010 C 
ENDROOT
BRANCH   9  29
ATOM     29  C   UNL d   1      23.616  34.765 -27.950  0.00  0.00     0.176 C 
BRANCH  29  30
ATOM     30  O   UNL d   1      23.045  35.045 -27.178  0.00  0.00    -0.400 OA
ATOM     31  H   UNL d   1      22.573  34.686 -26.995  0.00  0.00     0.209 HD
ENDBRANCH  29  30
ENDBRANCH   9  29
BRANCH  17  32
ATOM     32  O   UNL d   1      25.119  35.114 -28.364  0.00  0.00    -0.392 OA
ATOM     33  H   UNL d   1      24.795  35.484 -28.742  0.00  0.00     0.210 HD
ENDBRANCH  17  32
BRANCH  19  34
ATOM     34  O   UNL d   1      26.592  33.689 -28.782  0.00  0.00    -0.393 OA
ATOM     35  H   UNL d   1      26.981  33.286 -29.047  0.00  0.00     0.210 HD
ENDBRANCH  19  34
BRANCH  14  36
ATOM     36  C   UNL d   1      21.686  27.427 -27.473  0.00  0.00     0.149 C 
ATOM     37  O   UNL d   1      21.464  27.252 -26.513  0.00  0.00    -0.649 OA
BRANCH  36  38
ATOM     38  O   UNL d   1      20.991  27.295 -28.179  0.00  0.00    -0.776 OA
ATOM     39  H   UNL d   1      20.429  27.548 -28.112  0.00  0.00     0.167 HD
ENDBRANCH  36  38
ENDBRANCH  14  36
TORSDOF 6
ENDMDL
MODEL 4
REMARK VINA RESULT:   -13.500      1.294      3.123
REMARK INTER + INTRA:         -15.346
REMARK INTER:                 -16.795
REMARK INTRA:                   1.449
REMARK UNBOUND:                 1.310
REMARK  6 active torsions:
REMARK  status: ('A' for Active; 'I' for Inactive)
REMARK    1  A    between atoms: C_22  and  O_1 
REMARK    2  A    between atoms: C_24  and  O_2 
REMARK    3  A    between atoms: O_3  and  C_30 
REMARK    4  A    between atoms: O_4  and  C_33 
REMARK    5  A    between atoms: C_14  and  C_30 
REMARK    6  A    between atoms: C_19  and  C_33 
ROOT
ATOM      1  C   UNL d   1      23.781  34.082 -27.949  0.00  0.00    -0.028 A 
ATOM      2  C   UNL d   1      23.856  35.074 -28.055  0.00  0.00     0.007 A 
ATOM      3  C   UNL d   1      23.034  35.692 -27.888  0.00  0.00    -0.033 A 
ATOM      4  C   UNL d   1      24.579  33.501 -28.113  0.00  0.00    -0.013 A 
ATOM      5  C   UNL d   1      22.124  35.272 -27.608  0.00  0.00     0.007 A 
ATOM      6  C   UNL d   1      22.881  33.640 -27.670  0.00  0.00     0.011 A 
ATOM      7  C   UNL d   1      25.450  33.911 -28.381  0.00  0.00    -0.069 A 
ATOM      8  C   UNL d   1      22.046  34.239 -27.498  0.00  0.00     0.007 A 
ATOM      9  C   UNL d   1      21.254  35.896 -27.429  0.00  0.00     0.010 A 
ATOM     10  C   UNL d   1      26.289  33.319 -28.555  0.00  0.00     0.038 A 
ATOM     11  C   UNL d   1      24.727  35.484 -28.323  0.00  0.00     0.033 A 
ATOM     12  C   UNL d   1      23.139  36.765 -28.008  0.00  0.00     0.044 A 
ATOM     13  C   UNL d   1      24.485  32.469 -27.999  0.00  0.00     0.016 A 
ATOM     14  C   UNL d   1      26.219  32.285 -28.447  0.00  0.00     0.053 A 
ATOM     15  C   UNL d   1      23.382  33.184 -27.765  0.00  0.00     0.016 C 
ATOM     16  C   UNL d   1      25.311  31.857 -28.167  0.00  0.00     0.022 A 
ATOM     17  C   UNL d   1      21.334  36.972 -27.543  0.00  0.00     0.157 A 
ATOM     18  C   UNL d   1      25.524  34.903 -28.487  0.00  0.00    -0.022 A 
ATOM     19  C   UNL d   1      22.283  37.410 -27.835  0.00  0.00     0.148 A 
ATOM     20  C   UNL d   1      23.909  36.095 -28.157  0.00  0.00     0.016 C 
ATOM     21  C   UNL d   1      23.902  32.804 -27.872  0.00  0.00     0.021 C 
ATOM     22  C   UNL d   1      27.224  33.786 -28.845  0.00  0.00    -0.005 A 
ATOM     23  C   UNL d   1      27.080  31.647 -28.622  0.00  0.00     0.021 A 
ATOM     24  C   UNL d   1      28.097  33.169 -29.026  0.00  0.00    -0.014 A 
ATOM     25  C   UNL d   1      20.711  35.084 -27.214  0.00  0.00     0.020 C 
ATOM     26  C   UNL d   1      28.025  32.092 -28.914  0.00  0.00     0.006 A 
ATOM     27  C   UNL d   1      27.280  34.780 -28.946  0.00  0.00     0.011 C 
ATOM     28  C   UNL d   1      28.964  33.590 -29.294  0.00  0.00     0.010 C 
ENDROOT
BRANCH   9  29
ATOM     29  C   UNL d   1      20.290  35.991 -27.179  0.00  0.00     0.176 C 
BRANCH  29  30
ATOM     30  O   UNL d   1      19.617  35.338 -27.526  0.00  0.00    -0.400 OA
ATOM     31  H   UNL d   1      19.173  35.122 -27.152  0.00  0.00     0.209 HD
ENDBRANCH  29  30
ENDBRANCH   9  29
BRANCH  17  32
ATOM     32  O   UNL d   1      20.540  37.556 -27.381  0.00  0.00    -0.392 OA
ATOM     33  H   UNL d   1      20.591  38.056 -27.017  0.00  0.00     0.210 HD
ENDBRANCH  17  32
BRANCH  19  34
ATOM     34  O   UNL d   1      22.369  38.400 -27.943  0.00  0.00    -0.393 OA
ATOM     35  H   UNL d   1      21.890  38.769 -27.807  0.00  0.00     0.210 HD
ENDBRANCH  19  34
BRANCH  14  36
ATOM     36  C   UNL d   1      26.153  31.292 -28.344  0.00  0.00     0.149 C 
ATOM     37  O   UNL d   1      26.532  30.849 -27.532  0.00  0.00    -0.649 OA
BRANCH  36  38
ATOM     38  O   UNL d   1      25.707  30.744 -29.051  0.00  0.00    -0.776 OA
ATOM     39  H   UNL d   1      26.018  30.286 -29.329  0.00  0.00     0.167 HD
ENDBRANCH  36  38
ENDBRANCH  14  36
TORSDOF 6
ENDMDL
MODEL 5
REMARK VINA RESULT:   -13.079      1.842      6.071
REMARK INTER + INTRA:         -14.828
REMARK INTER:                 -16.293
REMARK INTRA:                   1.465
REMARK UNBOUND:                 1.310
REMARK  6 active torsions:
REMARK  status: ('A' for Active; 'I' for Inactive)
REMARK    1  A    between atoms: C_22  and  O_1 
REMARK    2  A    between atoms: C_24  and  O_2 
REMARK    3  A    between atoms: O_3  and  C_30 
REMARK    4  A    between atoms: O_4  and  C_33 
REMARK    5  A    between atoms: C_14  and  C_30 
REMARK    6  A    between atoms: C_19  and  C_33 
ROOT
ATOM      1  C   UNL d   1      24.784  33.517 -28.116  0.00  0.00    -0.028 A 
ATOM      2  C   UNL d   1      25.547  34.110 -28.375  0.00  0.00     0.007 A 
ATOM      3  C   UNL d   1      26.509  33.727 -28.483  0.00  0.00    -0.033 A 
ATOM      4  C   UNL d   1      23.865  33.899 -28.016  0.00  0.00    -0.013 A 
ATOM      5  C   UNL d   1      26.680  32.714 -28.318  0.00  0.00     0.007 A 
ATOM      6  C   UNL d   1      24.932  32.501 -27.947  0.00  0.00     0.011 A 
ATOM      7  C   UNL d   1      23.709  34.874 -28.176  0.00  0.00    -0.069 A 
ATOM      8  C   UNL d   1      25.886  32.096 -28.049  0.00  0.00     0.007 A 
ATOM      9  C   UNL d   1      27.675  32.292 -28.425  0.00  0.00     0.010 A 
ATOM     10  C   UNL d   1      22.757  35.286 -28.076  0.00  0.00     0.038 A 
ATOM     11  C   UNL d   1      25.390  35.085 -28.534  0.00  0.00     0.033 A 
ATOM     12  C   UNL d   1      27.321  34.390 -28.764  0.00  0.00     0.044 A 
ATOM     13  C   UNL d   1      23.081  33.268 -27.746  0.00  0.00     0.016 A 
ATOM     14  C   UNL d   1      21.958  34.674 -27.806  0.00  0.00     0.053 A 
ATOM     15  C   UNL d   1      24.280  32.692 -27.861  0.00  0.00     0.016 C 
ATOM     16  C   UNL d   1      22.122  33.658 -27.640  0.00  0.00     0.022 A 
ATOM     17  C   UNL d   1      28.501  32.935 -28.705  0.00  0.00     0.157 A 
ATOM     18  C   UNL d   1      24.471  35.467 -28.435  0.00  0.00    -0.022 A 
ATOM     19  C   UNL d   1      28.324  33.991 -28.877  0.00  0.00     0.148 A 
ATOM     20  C   UNL d   1      26.345  34.701 -28.640  0.00  0.00     0.016 C 
ATOM     21  C   UNL d   1      23.681  32.941 -27.796  0.00  0.00     0.021 C 
ATOM     22  C   UNL d   1      22.612  36.345 -28.253  0.00  0.00    -0.005 A 
ATOM     23  C   UNL d   1      20.958  35.080 -27.696  0.00  0.00     0.021 A 
ATOM     24  C   UNL d   1      21.621  36.775 -28.149  0.00  0.00    -0.014 A 
ATOM     25  C   UNL d   1      27.321  31.388 -28.183  0.00  0.00     0.020 C 
ATOM     26  C   UNL d   1      20.788  36.138 -27.869  0.00  0.00     0.006 A 
ATOM     27  C   UNL d   1      23.386  36.924 -28.512  0.00  0.00     0.011 C 
ATOM     28  C   UNL d   1      21.476  37.751 -28.311  0.00  0.00     0.010 C 
ENDROOT
BRANCH   9  29
ATOM     29  C   UNL d   1      28.292  31.506 -28.389  0.00  0.00     0.176 C 
BRANCH  29  30
ATOM     30  O   UNL d   1      28.018  30.676 -27.904  0.00  0.00    -0.400 OA
ATOM     31  H   UNL d   1      27.622  30.711 -27.429  0.00  0.00     0.209 HD
ENDBRANCH  29  30
ENDBRANCH   9  29
BRANCH  17  32
ATOM     32  O   UNL d   1      29.422  32.557 -28.806  0.00  0.00    -0.392 OA
ATOM     33  H   UNL d   1      29.520  31.951 -28.719  0.00  0.00     0.210 HD
ENDBRANCH  17  32
BRANCH  19  34
ATOM     34  O   UNL d   1      29.079  34.594 -29.136  0.00  0.00    -0.393 OA
ATOM     35  H   UNL d   1      29.567  34.365 -29.441  0.00  0.00     0.210 HD
ENDBRANCH  19  34
BRANCH  14  36
ATOM     36  C   UNL d   1      21.191  34.087 -27.547  0.00  0.00     0.149 C 
ATOM     37  O   UNL d   1      20.805  33.448 -28.212  0.00  0.00    -0.649 OA
BRANCH  36  38
ATOM     38  O   UNL d   1      20.810  34.140 -26.625  0.00  0.00    -0.776 OA
ATOM     39  H   UNL d   1      20.483  34.637 -26.452  0.00  0.00     0.167 HD
ENDBRANCH  36  38
ENDBRANCH  14  36
TORSDOF 6
ENDMDL
