MODEL 1
REMARK VINA RESULT:    -9.279      0.000      0.000
REMARK INTER + INTRA:          -9.073
REMARK INTER:                 -11.006
REMARK INTRA:                   1.933
REMARK UNBOUND:                 2.105
REMARK  5 active torsions:
REMARK  status: ('A' for Active; 'I' for Inactive)
REMARK    1  A    between atoms: O_2  and  C_13 
REMARK    2  A    between atoms: O_3  and  C_19 
REMARK    3  A    between atoms: O_5  and  C_17 
REMARK    4  A    between atoms: O_6  and  C_21 
REMARK    5  A    between atoms: C_8  and  C_10 
ROOT
ATOM      1  O   UNL d   1      23.813  33.708 -27.889  0.00  0.00    -0.309 OA
ATOM      2  O   UNL d   1      25.867  35.531 -29.096  0.00  0.00    -0.287 OA
ATOM      3  C   UNL d   1      25.415  33.971 -28.493  0.00  0.00     0.081 A 
ATOM      4  C   UNL d   1      23.581  34.660 -28.089  0.00  0.00     0.090 A 
ATOM      5  C   UNL d   1      24.730  33.364 -28.090  0.00  0.00     0.095 A 
ATOM      6  C   UNL d   1      25.182  34.923 -28.694  0.00  0.00     0.190 A 
ATOM      7  C   UNL d   1      24.265  35.267 -28.492  0.00  0.00     0.094 A 
ATOM      8  C   UNL d   1      26.373  33.627 -28.708  0.00  0.00     0.085 A 
ATOM      9  C   UNL d   1      24.957  32.370 -27.876  0.00  0.00     0.075 A 
ATOM     10  C   UNL d   1      25.910  32.004 -28.083  0.00  0.00     0.071 A 
ATOM     11  C   UNL d   1      26.623  32.637 -28.502  0.00  0.00     0.074 A 
ENDROOT
BRANCH   4  12
ATOM     12  C   UNL d   1      22.664  35.004 -27.887  0.00  0.00     0.001 A 
ATOM     13  C   UNL d   1      22.546  35.777 -27.265  0.00  0.00     0.054 A 
ATOM     14  C   UNL d   1      21.629  36.121 -27.063  0.00  0.00     0.102 A 
ATOM     15  C   UNL d   1      20.830  35.692 -27.484  0.00  0.00     0.099 A 
ATOM     16  C   UNL d   1      20.948  34.919 -28.107  0.00  0.00     0.040 A 
ATOM     17  C   UNL d   1      21.865  34.574 -28.308  0.00  0.00     0.017 A 
BRANCH  14  18
ATOM     18  O   UNL d   1      21.511  36.895 -26.440  0.00  0.00    -0.353 OA
ATOM     19  C   UNL d   1      22.284  37.496 -26.237  0.00  0.00     0.210 C 
ENDBRANCH  14  18
BRANCH  15  20
ATOM     20  O   UNL d   1      19.913  36.036 -27.282  0.00  0.00    -0.358 OA
ATOM     21  H   UNL d   1      19.555  36.253 -27.740  0.00  0.00     0.217 HD
ENDBRANCH  15  20
ENDBRANCH   4  12
BRANCH   8  22
ATOM     22  O   UNL d   1      27.050  34.243 -29.111  0.00  0.00    -0.360 OA
ATOM     23  H   UNL d   1      26.930  34.850 -29.152  0.00  0.00     0.217 HD
ENDBRANCH   8  22
BRANCH  10  24
ATOM     24  O   UNL d   1      26.138  31.052 -27.881  0.00  0.00    -0.361 OA
ATOM     25  H   UNL d   1      26.644  30.795 -28.130  0.00  0.00     0.217 HD
ENDBRANCH  10  24
TORSDOF 5
ENDMDL
MODEL 2
REMARK VINA RESULT:    -9.239     16.780     18.750
REMARK INTER + INTRA:          -9.023
REMARK INTER:                 -11.275
REMARK INTRA:                   2.251
REMARK UNBOUND:                 2.105
REMARK  5 active torsions:
REMARK  status: ('A' for Active; 'I' for Inactive)
REMARK    1  A    between atoms: O_2  and  C_13 
REMARK    2  A    between atoms: O_3  and  C_19 
REMARK    3  A    between atoms: O_5  and  C_17 
REMARK    4  A    between atoms: O_6  and  C_21 
REMARK    5  A    between atoms: C_8  and  C_10 
ROOT
ATOM      1  O   UNL d   1      18.506  37.556 -10.869  0.00  0.00    -0.309 OA
ATOM      2  O   UNL d   1      20.318  39.618  -9.659  0.00  0.00    -0.287 OA
ATOM      3  C   UNL d   1      18.739  39.126 -10.176  0.00  0.00     0.081 A 
ATOM      4  C   UNL d   1      19.480  37.361 -10.756  0.00  0.00     0.090 A 
ATOM      5  C   UNL d   1      18.135  38.439 -10.579  0.00  0.00     0.095 A 
ATOM      6  C   UNL d   1      19.714  38.931 -10.062  0.00  0.00     0.190 A 
ATOM      7  C   UNL d   1      20.084  38.048 -10.352  0.00  0.00     0.094 A 
ATOM      8  C   UNL d   1      18.368  40.049  -9.869  0.00  0.00     0.085 A 
ATOM      9  C   UNL d   1      17.118  38.627 -10.704  0.00  0.00     0.075 A 
ATOM     10  C   UNL d   1      16.726  39.544 -10.404  0.00  0.00     0.071 A 
ATOM     11  C   UNL d   1      17.354  40.260  -9.984  0.00  0.00     0.074 A 
ENDROOT
BRANCH   4  12
ATOM     12  C   UNL d   1      19.850  36.478 -11.045  0.00  0.00     0.001 A 
ATOM     13  C   UNL d   1      19.233  35.712 -11.224  0.00  0.00     0.054 A 
ATOM     14  C   UNL d   1      19.603  34.829 -11.514  0.00  0.00     0.102 A 
ATOM     15  C   UNL d   1      20.590  34.713 -11.625  0.00  0.00     0.099 A 
ATOM     16  C   UNL d   1      21.207  35.480 -11.447  0.00  0.00     0.040 A 
ATOM     17  C   UNL d   1      20.837  36.363 -11.157  0.00  0.00     0.017 A 
BRANCH  14  18
ATOM     18  O   UNL d   1      18.986  34.062 -11.692  0.00  0.00    -0.353 OA
ATOM     19  C   UNL d   1      18.015  34.230 -11.858  0.00  0.00     0.210 C 
ENDBRANCH  14  18
BRANCH  15  20
ATOM     20  O   UNL d   1      20.960  33.831 -11.915  0.00  0.00    -0.358 OA
ATOM     21  H   UNL d   1      21.214  33.449 -11.498  0.00  0.00     0.217 HD
ENDBRANCH  15  20
ENDBRANCH   4  12
BRANCH   8  22
ATOM     22  O   UNL d   1      18.981  40.729  -9.467  0.00  0.00    -0.360 OA
ATOM     23  H   UNL d   1      19.158  40.675  -8.875  0.00  0.00     0.217 HD
ENDBRANCH   8  22
BRANCH  10  24
ATOM     24  O   UNL d   1      15.751  39.735 -10.519  0.00  0.00    -0.361 OA
ATOM     25  H   UNL d   1      15.449  40.071 -10.094  0.00  0.00     0.217 HD
ENDBRANCH  10  24
TORSDOF 5
ENDMDL
MODEL 3
REMARK VINA RESULT:    -8.790     17.742     19.281
REMARK INTER + INTRA:          -8.483
REMARK INTER:                 -10.317
REMARK INTRA:                   1.834
REMARK UNBOUND:                 2.105
REMARK  5 active torsions:
REMARK  status: ('A' for Active; 'I' for Inactive)
REMARK    1  A    between atoms: O_2  and  C_13 
REMARK    2  A    between atoms: O_3  and  C_19 
REMARK    3  A    between atoms: O_5  and  C_17 
REMARK    4  A    between atoms: O_6  and  C_21 
REMARK    5  A    between atoms: C_8  and  C_10 
ROOT
ATOM      1  O   UNL d   1      20.061  39.215 -10.614  0.00  0.00    -0.309 OA
ATOM      2  O   UNL d   1      17.090  39.384 -10.233  0.00  0.00    -0.287 OA
ATOM      3  C   UNL d   1      18.604  40.151 -10.578  0.00  0.00     0.081 A 
ATOM      4  C   UNL d   1      19.537  38.391 -10.395  0.00  0.00     0.090 A 
ATOM      5  C   UNL d   1      19.594  40.095 -10.705  0.00  0.00     0.095 A 
ATOM      6  C   UNL d   1      18.080  39.328 -10.360  0.00  0.00     0.190 A 
ATOM      7  C   UNL d   1      18.546  38.448 -10.268  0.00  0.00     0.094 A 
ATOM      8  C   UNL d   1      18.105  41.060 -10.670  0.00  0.00     0.085 A 
ATOM      9  C   UNL d   1      20.154  40.943 -10.933  0.00  0.00     0.075 A 
ATOM     10  C   UNL d   1      19.675  41.863 -11.030  0.00  0.00     0.071 A 
ATOM     11  C   UNL d   1      18.644  41.922 -10.897  0.00  0.00     0.074 A 
ENDROOT
BRANCH   4  12
ATOM     12  C   UNL d   1      20.003  37.512 -10.304  0.00  0.00     0.001 A 
ATOM     13  C   UNL d   1      20.485  37.287  -9.457  0.00  0.00     0.054 A 
ATOM     14  C   UNL d   1      20.952  36.407  -9.366  0.00  0.00     0.102 A 
ATOM     15  C   UNL d   1      20.936  35.752 -10.122  0.00  0.00     0.099 A 
ATOM     16  C   UNL d   1      20.454  35.977 -10.968  0.00  0.00     0.040 A 
ATOM     17  C   UNL d   1      19.987  36.857 -11.060  0.00  0.00     0.017 A 
BRANCH  14  18
ATOM     18  O   UNL d   1      21.434  36.182  -8.520  0.00  0.00    -0.353 OA
ATOM     19  C   UNL d   1      21.481  36.852  -7.778  0.00  0.00     0.210 C 
ENDBRANCH  14  18
BRANCH  15  20
ATOM     20  O   UNL d   1      21.402  34.872 -10.030  0.00  0.00    -0.358 OA
ATOM     21  H   UNL d   1      21.078  34.363  -9.890  0.00  0.00     0.217 HD
ENDBRANCH  15  20
ENDBRANCH   4  12
BRANCH   8  22
ATOM     22  O   UNL d   1      17.114  41.105 -10.541  0.00  0.00    -0.360 OA
ATOM     23  H   UNL d   1      16.734  40.993 -11.017  0.00  0.00     0.217 HD
ENDBRANCH   8  22
BRANCH  10  24
ATOM     24  O   UNL d   1      20.202  42.684 -11.248  0.00  0.00    -0.361 OA
ATOM     25  H   UNL d   1      19.961  43.245 -11.140  0.00  0.00     0.217 HD
ENDBRANCH  10  24
TORSDOF 5
ENDMDL
MODEL 4
REMARK VINA RESULT:    -8.707      1.122      5.133
REMARK INTER + INTRA:          -8.383
REMARK INTER:                 -10.287
REMARK INTRA:                   1.905
REMARK UNBOUND:                 2.105
REMARK  5 active torsions:
REMARK  status: ('A' for Active; 'I' for Inactive)
REMARK    1  A    between atoms: O_2  and  C_13 
REMARK    2  A    between atoms: O_3  and  C_19 
REMARK    3  A    between atoms: O_5  and  C_17 
REMARK    4  A    between atoms: O_6  and  C_21 
REMARK    5  A    between atoms: C_8  and  C_10 
ROOT
ATOM      1  O   UNL d   1      23.053  35.037 -28.415  0.00  0.00    -0.309 OA
ATOM      2  O   UNL d   1      23.787  37.585 -27.011  0.00  0.00    -0.287 OA
ATOM      3  C   UNL d   1      22.591  36.429 -27.494  0.00  0.00     0.081 A 
ATOM      4  C   UNL d   1      24.005  35.343 -28.400  0.00  0.00     0.090 A 
ATOM      5  C   UNL d   1      22.346  35.580 -27.962  0.00  0.00     0.095 A 
ATOM      6  C   UNL d   1      23.543  36.735 -27.479  0.00  0.00     0.190 A 
ATOM      7  C   UNL d   1      24.250  36.192 -27.932  0.00  0.00     0.094 A 
ATOM      8  C   UNL d   1      21.865  37.005 -27.019  0.00  0.00     0.085 A 
ATOM      9  C   UNL d   1      21.359  35.248 -27.987  0.00  0.00     0.075 A 
ATOM     10  C   UNL d   1      20.617  35.809 -27.517  0.00  0.00     0.071 A 
ATOM     11  C   UNL d   1      20.871  36.693 -27.030  0.00  0.00     0.074 A 
ENDROOT
BRANCH   4  12
ATOM     12  C   UNL d   1      24.712  34.800 -28.853  0.00  0.00     0.001 A 
ATOM     13  C   UNL d   1      25.038  33.953 -28.432  0.00  0.00     0.054 A 
ATOM     14  C   UNL d   1      25.745  33.410 -28.884  0.00  0.00     0.102 A 
ATOM     15  C   UNL d   1      26.126  33.713 -29.758  0.00  0.00     0.099 A 
ATOM     16  C   UNL d   1      25.800  34.560 -30.179  0.00  0.00     0.040 A 
ATOM     17  C   UNL d   1      25.093  35.103 -29.726  0.00  0.00     0.017 A 
BRANCH  14  18
ATOM     18  O   UNL d   1      26.072  32.564 -28.464  0.00  0.00    -0.353 OA
ATOM     19  C   UNL d   1      25.439  31.985 -27.949  0.00  0.00     0.210 C 
ENDBRANCH  14  18
BRANCH  15  20
ATOM     20  O   UNL d   1      26.833  33.170 -30.211  0.00  0.00    -0.358 OA
ATOM     21  H   UNL d   1      27.423  33.211 -30.023  0.00  0.00     0.217 HD
ENDBRANCH  15  20
ENDBRANCH   4  12
BRANCH   8  22
ATOM     22  O   UNL d   1      22.121  37.853 -26.554  0.00  0.00    -0.360 OA
ATOM     23  H   UNL d   1      21.866  38.390 -26.727  0.00  0.00     0.217 HD
ENDBRANCH   8  22
BRANCH  10  24
ATOM     24  O   UNL d   1      19.666  35.499 -27.535  0.00  0.00    -0.361 OA
ATOM     25  H   UNL d   1      19.314  35.549 -27.027  0.00  0.00     0.217 HD
ENDBRANCH  10  24
TORSDOF 5
ENDMDL
MODEL 5
REMARK VINA RESULT:    -8.598     16.880     18.478
REMARK INTER + INTRA:          -8.251
REMARK INTER:                 -10.147
REMARK INTRA:                   1.896
REMARK UNBOUND:                 2.105
REMARK  5 active torsions:
REMARK  status: ('A' for Active; 'I' for Inactive)
REMARK    1  A    between atoms: O_2  and  C_13 
REMARK    2  A    between atoms: O_3  and  C_19 
REMARK    3  A    between atoms: O_5  and  C_17 
REMARK    4  A    between atoms: O_6  and  C_21 
REMARK    5  A    between atoms: C_8  and  C_10 
ROOT
ATOM      1  O   UNL d   1      19.574  37.308 -10.941  0.00  0.00    -0.309 OA
ATOM      2  O   UNL d   1      21.351  36.986  -8.545  0.00  0.00    -0.287 OA
ATOM      3  C   UNL d   1      20.696  36.361 -10.022  0.00  0.00     0.081 A 
ATOM      4  C   UNL d   1      19.637  38.041 -10.263  0.00  0.00     0.090 A 
ATOM      5  C   UNL d   1      20.103  36.469 -10.820  0.00  0.00     0.095 A 
ATOM      6  C   UNL d   1      20.759  37.093  -9.344  0.00  0.00     0.190 A 
ATOM      7  C   UNL d   1      20.229  37.933  -9.464  0.00  0.00     0.094 A 
ATOM      8  C   UNL d   1      21.253  35.492  -9.883  0.00  0.00     0.085 A 
ATOM      9  C   UNL d   1      20.027  35.715 -11.535  0.00  0.00     0.075 A 
ATOM     10  C   UNL d   1      20.576  34.837 -11.416  0.00  0.00     0.071 A 
ATOM     11  C   UNL d   1      21.192  34.725 -10.585  0.00  0.00     0.074 A 
ENDROOT
BRANCH   4  12
ATOM     12  C   UNL d   1      19.107  38.880 -10.383  0.00  0.00     0.001 A 
ATOM     13  C   UNL d   1      18.112  38.862 -10.289  0.00  0.00     0.054 A 
ATOM     14  C   UNL d   1      17.583  39.701 -10.410  0.00  0.00     0.102 A 
ATOM     15  C   UNL d   1      18.049  40.560 -10.624  0.00  0.00     0.099 A 
ATOM     16  C   UNL d   1      19.044  40.578 -10.718  0.00  0.00     0.040 A 
ATOM     17  C   UNL d   1      19.573  39.739 -10.598  0.00  0.00     0.017 A 
BRANCH  14  18
ATOM     18  O   UNL d   1      16.587  39.683 -10.316  0.00  0.00    -0.353 OA
ATOM     19  C   UNL d   1      16.084  38.836 -10.489  0.00  0.00     0.210 C 
ENDBRANCH  14  18
BRANCH  15  20
ATOM     20  O   UNL d   1      17.519  41.400 -10.745  0.00  0.00    -0.358 OA
ATOM     21  H   UNL d   1      17.027  41.510 -10.385  0.00  0.00     0.217 HD
ENDBRANCH  15  20
ENDBRANCH   4  12
BRANCH   8  22
ATOM     22  O   UNL d   1      21.842  35.396  -9.081  0.00  0.00    -0.360 OA
ATOM     23  H   UNL d   1      21.721  34.959  -8.659  0.00  0.00     0.217 HD
ENDBRANCH   8  22
BRANCH  10  24
ATOM     24  O   UNL d   1      20.510  34.107 -12.097  0.00  0.00    -0.361 OA
ATOM     25  H   UNL d   1      20.044  34.106 -12.506  0.00  0.00     0.217 HD
ENDBRANCH  10  24
TORSDOF 5
ENDMDL
