MODEL 1
REMARK VINA RESULT:    -9.865      0.000      0.000
REMARK INTER + INTRA:         -10.017
REMARK INTER:                 -11.426
REMARK INTRA:                   1.409
REMARK UNBOUND:                 1.001
REMARK  3 active torsions:
REMARK  status: ('A' for Active; 'I' for Inactive)
REMARK    1  A    between atoms: O_2  and  C_10 
REMARK    2  A    between atoms: O_4  and  C_13 
REMARK    3  A    between atoms: C_7  and  C_9 
ROOT
ATOM      1  O   UNL d   1      23.146  35.238 -28.002  0.00  0.00    -0.309 OA
ATOM      2  O   UNL d   1      21.859  32.559 -27.592  0.00  0.00    -0.287 OA
ATOM      3  C   UNL d   1      23.276  33.515 -27.874  0.00  0.00     0.081 A 
ATOM      4  C   UNL d   1      23.704  34.408 -28.011  0.00  0.00     0.095 A 
ATOM      5  C   UNL d   1      22.159  35.174 -27.856  0.00  0.00     0.090 A 
ATOM      6  C   UNL d   1      22.288  33.452 -27.729  0.00  0.00     0.190 A 
ATOM      7  C   UNL d   1      23.844  32.643 -27.881  0.00  0.00     0.085 A 
ATOM      8  C   UNL d   1      21.730  34.281 -27.719  0.00  0.00     0.094 A 
ATOM      9  C   UNL d   1      24.732  34.491 -28.164  0.00  0.00     0.075 A 
ATOM     10  C   UNL d   1      25.320  33.631 -28.175  0.00  0.00     0.071 A 
ATOM     11  C   UNL d   1      24.873  32.701 -28.032  0.00  0.00     0.074 A 
ENDROOT
BRANCH   5  12
ATOM     12  C   UNL d   1      21.600  36.004 -27.847  0.00  0.00    -0.002 A 
ATOM     13  C   UNL d   1      20.672  35.977 -27.476  0.00  0.00     0.014 A 
ATOM     14  C   UNL d   1      20.114  36.807 -27.467  0.00  0.00     0.001 A 
ATOM     15  C   UNL d   1      20.483  37.662 -27.829  0.00  0.00     0.000 A 
ATOM     16  C   UNL d   1      21.411  37.689 -28.201  0.00  0.00     0.001 A 
ATOM     17  C   UNL d   1      21.970  36.859 -28.210  0.00  0.00     0.014 A 
ENDBRANCH   5  12
BRANCH   7  18
ATOM     18  O   UNL d   1      23.405  31.755 -27.743  0.00  0.00    -0.360 OA
ATOM     19  H   UNL d   1      22.807  31.727 -27.583  0.00  0.00     0.217 HD
ENDBRANCH   7  18
BRANCH  10  20
ATOM     20  O   UNL d   1      26.307  33.699 -28.321  0.00  0.00    -0.361 OA
ATOM     21  H   UNL d   1      26.532  34.106 -28.731  0.00  0.00     0.217 HD
ENDBRANCH  10  20
TORSDOF 3
ENDMDL
MODEL 2
REMARK VINA RESULT:    -9.412      0.836      2.057
REMARK INTER + INTRA:          -9.512
REMARK INTER:                 -10.923
REMARK INTRA:                   1.411
REMARK UNBOUND:                 1.001
REMARK  3 active torsions:
REMARK  status: ('A' for Active; 'I' for Inactive)
REMARK    1  A    between atoms: O_2  and  C_10 
REMARK    2  A    between atoms: O_4  and  C_13 
REMARK    3  A    between atoms: C_7  and  C_9 
ROOT
ATOM      1  O   UNL d   1      22.810  34.255 -27.890  0.00  0.00    -0.309 OA
ATOM      2  O   UNL d   1      25.403  35.576 -28.619  0.00  0.00    -0.287 OA
ATOM      3  C   UNL d   1      24.494  34.141 -28.280  0.00  0.00     0.081 A 
ATOM      4  C   UNL d   1      23.629  33.701 -28.037  0.00  0.00     0.095 A 
ATOM      5  C   UNL d   1      22.855  35.249 -27.985  0.00  0.00     0.090 A 
ATOM      6  C   UNL d   1      24.539  35.135 -28.376  0.00  0.00     0.190 A 
ATOM      7  C   UNL d   1      25.355  33.577 -28.437  0.00  0.00     0.085 A 
ATOM      8  C   UNL d   1      23.720  35.689 -28.228  0.00  0.00     0.094 A 
ATOM      9  C   UNL d   1      23.567  32.666 -27.934  0.00  0.00     0.075 A 
ATOM     10  C   UNL d   1      24.416  32.082 -28.086  0.00  0.00     0.071 A 
ATOM     11  C   UNL d   1      25.316  32.540 -28.339  0.00  0.00     0.074 A 
ENDROOT
BRANCH   5  12
ATOM     12  C   UNL d   1      22.036  35.803 -27.837  0.00  0.00    -0.002 A 
ATOM     13  C   UNL d   1      21.224  35.394 -27.423  0.00  0.00     0.014 A 
ATOM     14  C   UNL d   1      20.404  35.948 -27.275  0.00  0.00     0.001 A 
ATOM     15  C   UNL d   1      20.398  36.911 -27.542  0.00  0.00     0.000 A 
ATOM     16  C   UNL d   1      21.210  37.321 -27.957  0.00  0.00     0.001 A 
ATOM     17  C   UNL d   1      22.029  36.767 -28.105  0.00  0.00     0.014 A 
ENDBRANCH   5  12
BRANCH   7  18
ATOM     18  O   UNL d   1      26.214  34.028 -28.680  0.00  0.00    -0.360 OA
ATOM     19  H   UNL d   1      26.738  33.699 -28.712  0.00  0.00     0.217 HD
ENDBRANCH   7  18
BRANCH  10  20
ATOM     20  O   UNL d   1      24.366  31.088 -27.990  0.00  0.00    -0.361 OA
ATOM     21  H   UNL d   1      24.660  30.807 -27.521  0.00  0.00     0.217 HD
ENDBRANCH  10  20
TORSDOF 3
ENDMDL
MODEL 3
REMARK VINA RESULT:    -8.608     18.754     19.839
REMARK INTER + INTRA:          -8.614
REMARK INTER:                  -9.719
REMARK INTRA:                   1.105
REMARK UNBOUND:                 1.001
REMARK  3 active torsions:
REMARK  status: ('A' for Active; 'I' for Inactive)
REMARK    1  A    between atoms: O_2  and  C_10 
REMARK    2  A    between atoms: O_4  and  C_13 
REMARK    3  A    between atoms: C_7  and  C_9 
ROOT
ATOM      1  O   UNL d   1      19.186  40.830 -45.511  0.00  0.00    -0.309 OA
ATOM      2  O   UNL d   1      18.979  42.276 -48.131  0.00  0.00    -0.287 OA
ATOM      3  C   UNL d   1      19.918  41.389 -46.977  0.00  0.00     0.081 A 
ATOM      4  C   UNL d   1      19.987  40.907 -46.104  0.00  0.00     0.095 A 
ATOM      5  C   UNL d   1      18.315  41.235 -45.791  0.00  0.00     0.090 A 
ATOM      6  C   UNL d   1      19.048  41.794 -47.257  0.00  0.00     0.190 A 
ATOM      7  C   UNL d   1      20.744  41.477 -47.606  0.00  0.00     0.085 A 
ATOM      8  C   UNL d   1      18.246  41.717 -46.664  0.00  0.00     0.094 A 
ATOM      9  C   UNL d   1      20.887  40.479 -45.799  0.00  0.00     0.075 A 
ATOM     10  C   UNL d   1      21.726  40.555 -46.411  0.00  0.00     0.071 A 
ATOM     11  C   UNL d   1      21.654  41.058 -47.321  0.00  0.00     0.074 A 
ENDROOT
BRANCH   5  12
ATOM     12  C   UNL d   1      17.514  41.158 -45.197  0.00  0.00    -0.002 A 
ATOM     13  C   UNL d   1      17.057  41.983 -44.865  0.00  0.00     0.014 A 
ATOM     14  C   UNL d   1      16.256  41.906 -44.271  0.00  0.00     0.001 A 
ATOM     15  C   UNL d   1      15.912  41.004 -44.011  0.00  0.00     0.000 A 
ATOM     16  C   UNL d   1      16.369  40.179 -44.344  0.00  0.00     0.001 A 
ATOM     17  C   UNL d   1      17.170  40.256 -44.937  0.00  0.00     0.014 A 
ENDBRANCH   5  12
BRANCH   7  18
ATOM     18  O   UNL d   1      20.663  41.962 -48.477  0.00  0.00    -0.360 OA
ATOM     19  H   UNL d   1      20.116  42.191 -48.654  0.00  0.00     0.217 HD
ENDBRANCH   7  18
BRANCH  10  20
ATOM     20  O   UNL d   1      22.594  40.149 -46.128  0.00  0.00    -0.361 OA
ATOM     21  H   UNL d   1      23.121  40.471 -46.186  0.00  0.00     0.217 HD
ENDBRANCH  10  20
TORSDOF 3
ENDMDL
MODEL 4
REMARK VINA RESULT:    -8.583     18.101     19.203
REMARK INTER + INTRA:          -8.585
REMARK INTER:                  -9.772
REMARK INTRA:                   1.187
REMARK UNBOUND:                 1.001
REMARK  3 active torsions:
REMARK  status: ('A' for Active; 'I' for Inactive)
REMARK    1  A    between atoms: O_2  and  C_10 
REMARK    2  A    between atoms: O_4  and  C_13 
REMARK    3  A    between atoms: C_7  and  C_9 
ROOT
ATOM      1  O   UNL d   1      20.307  38.706  -9.623  0.00  0.00    -0.309 OA
ATOM      2  O   UNL d   1      17.568  39.057 -10.796  0.00  0.00    -0.287 OA
ATOM      3  C   UNL d   1      18.911  39.692  -9.905  0.00  0.00     0.081 A 
ATOM      4  C   UNL d   1      19.824  39.575  -9.514  0.00  0.00     0.095 A 
ATOM      5  C   UNL d   1      19.877  37.954 -10.123  0.00  0.00     0.090 A 
ATOM      6  C   UNL d   1      18.481  38.940 -10.405  0.00  0.00     0.190 A 
ATOM      7  C   UNL d   1      18.396  40.591  -9.800  0.00  0.00     0.085 A 
ATOM      8  C   UNL d   1      18.964  38.071 -10.514  0.00  0.00     0.094 A 
ATOM      9  C   UNL d   1      20.285  40.349  -8.991  0.00  0.00     0.075 A 
ATOM     10  C   UNL d   1      19.788  41.257  -8.873  0.00  0.00     0.071 A 
ATOM     11  C   UNL d   1      18.838  41.378  -9.281  0.00  0.00     0.074 A 
ENDROOT
BRANCH   5  12
ATOM     12  C   UNL d   1      20.360  37.085 -10.232  0.00  0.00    -0.002 A 
ATOM     13  C   UNL d   1      20.407  36.649 -11.130  0.00  0.00     0.014 A 
ATOM     14  C   UNL d   1      20.890  35.780 -11.239  0.00  0.00     0.001 A 
ATOM     15  C   UNL d   1      21.325  35.347 -10.449  0.00  0.00     0.000 A 
ATOM     16  C   UNL d   1      21.277  35.784  -9.551  0.00  0.00     0.001 A 
ATOM     17  C   UNL d   1      20.795  36.653  -9.442  0.00  0.00     0.014 A 
ENDBRANCH   5  12
BRANCH   7  18
ATOM     18  O   UNL d   1      17.484  40.697 -10.195  0.00  0.00    -0.360 OA
ATOM     19  H   UNL d   1      17.370  40.494 -10.770  0.00  0.00     0.217 HD
ENDBRANCH   7  18
BRANCH  10  20
ATOM     20  O   UNL d   1      20.222  42.006  -8.373  0.00  0.00    -0.361 OA
ATOM     21  H   UNL d   1      20.595  41.883  -7.894  0.00  0.00     0.217 HD
ENDBRANCH  10  20
TORSDOF 3
ENDMDL
MODEL 5
REMARK VINA RESULT:    -8.518     18.167     19.023
REMARK INTER + INTRA:          -8.513
REMARK INTER:                  -9.579
REMARK INTRA:                   1.066
REMARK UNBOUND:                 1.001
REMARK  3 active torsions:
REMARK  status: ('A' for Active; 'I' for Inactive)
REMARK    1  A    between atoms: O_2  and  C_10 
REMARK    2  A    between atoms: O_4  and  C_13 
REMARK    3  A    between atoms: C_7  and  C_9 
ROOT
ATOM      1  O   UNL d   1      20.853  36.883  -9.358  0.00  0.00    -0.309 OA
ATOM      2  O   UNL d   1      19.571  39.376 -10.427  0.00  0.00    -0.287 OA
ATOM      3  C   UNL d   1      20.433  38.553  -9.170  0.00  0.00     0.081 A 
ATOM      4  C   UNL d   1      20.860  37.722  -8.814  0.00  0.00     0.095 A 
ATOM      5  C   UNL d   1      20.418  36.875 -10.259  0.00  0.00     0.090 A 
ATOM      6  C   UNL d   1      19.998  38.545 -10.071  0.00  0.00     0.190 A 
ATOM      7  C   UNL d   1      20.432  39.434  -8.615  0.00  0.00     0.085 A 
ATOM      8  C   UNL d   1      19.991  37.706 -10.615  0.00  0.00     0.094 A 
ATOM      9  C   UNL d   1      21.316  37.714  -7.877  0.00  0.00     0.075 A 
ATOM     10  C   UNL d   1      21.328  38.584  -7.305  0.00  0.00     0.071 A 
ATOM     11  C   UNL d   1      20.883  39.449  -7.676  0.00  0.00     0.074 A 
ENDROOT
BRANCH   5  12
ATOM     12  C   UNL d   1      20.411  36.036 -10.803  0.00  0.00    -0.002 A 
ATOM     13  C   UNL d   1      19.546  35.575 -10.999  0.00  0.00     0.014 A 
ATOM     14  C   UNL d   1      19.539  34.736 -11.543  0.00  0.00     0.001 A 
ATOM     15  C   UNL d   1      20.397  34.359 -11.892  0.00  0.00     0.000 A 
ATOM     16  C   UNL d   1      21.262  34.820 -11.696  0.00  0.00     0.001 A 
ATOM     17  C   UNL d   1      21.269  35.659 -11.151  0.00  0.00     0.014 A 
ENDBRANCH   5  12
BRANCH   7  18
ATOM     18  O   UNL d   1      20.002  40.259  -8.981  0.00  0.00    -0.360 OA
ATOM     19  H   UNL d   1      20.098  40.422  -9.571  0.00  0.00     0.217 HD
ENDBRANCH   7  18
BRANCH  10  20
ATOM     20  O   UNL d   1      21.763  38.588  -6.404  0.00  0.00    -0.361 OA
ATOM     21  H   UNL d   1      21.724  38.088  -6.039  0.00  0.00     0.217 HD
ENDBRANCH  10  20
TORSDOF 3
ENDMDL
