MODEL 1
REMARK VINA RESULT:    -8.647      0.000      0.000
REMARK INTER + INTRA:          -6.955
REMARK INTER:                 -10.416
REMARK INTRA:                   3.461
REMARK UNBOUND:                 3.461
REMARK  6 active torsions:
REMARK  status: ('A' for Active; 'I' for Inactive)
REMARK    1  A    between atoms: O_2  and  C_7 
REMARK    2  A    between atoms: O_3  and  C_13 
REMARK    3  A    between atoms: O_4  and  C_18 
REMARK    4  A    between atoms: O_5  and  C_19 
REMARK    5  A    between atoms: O_6  and  C_21 
REMARK    6  A    between atoms: C_8  and  C_12 
ROOT
ATOM      1  O   UNL d   1      14.977 -16.586 -28.509  0.00  0.00    -0.338 OA
ATOM      2  C   UNL d   1      14.284 -17.560 -29.761  0.00  0.00     0.156 A 
ATOM      3  C   UNL d   1      14.445 -16.662 -29.351  0.00  0.00     0.191 A 
ATOM      4  C   UNL d   1      14.655 -18.382 -29.328  0.00  0.00     0.079 A 
ATOM      5  C   UNL d   1      15.188 -18.305 -28.486  0.00  0.00     0.011 A 
ATOM      6  C   UNL d   1      15.349 -17.407 -28.076  0.00  0.00     0.081 A 
ATOM      7  C   UNL d   1      15.568 -19.169 -28.046  0.00  0.00     0.077 A 
ATOM      8  C   UNL d   1      15.901 -17.311 -27.198  0.00  0.00     0.074 A 
ATOM      9  C   UNL d   1      16.124 -19.097 -27.168  0.00  0.00     0.073 A 
ATOM     10  C   UNL d   1      16.291 -18.162 -26.741  0.00  0.00     0.071 A 
ENDROOT
BRANCH   3  11
ATOM     11  C   UNL d   1      14.073 -15.841 -29.784  0.00  0.00    -0.024 A 
ATOM     12  C   UNL d   1      14.604 -15.360 -30.483  0.00  0.00     0.049 A 
ATOM     13  C   UNL d   1      14.232 -14.539 -30.916  0.00  0.00     0.099 A 
ATOM     14  C   UNL d   1      13.330 -14.199 -30.650  0.00  0.00     0.098 A 
ATOM     15  C   UNL d   1      12.800 -14.679 -29.952  0.00  0.00     0.040 A 
ATOM     16  C   UNL d   1      13.171 -15.501 -29.519  0.00  0.00     0.013 A 
BRANCH  13  17
ATOM     17  O   UNL d   1      14.763 -14.058 -31.614  0.00  0.00    -0.358 OA
ATOM     18  H   UNL d   1      14.556 -14.034 -32.198  0.00  0.00     0.217 HD
ENDBRANCH  13  17
BRANCH  14  19
ATOM     19  O   UNL d   1      12.959 -13.377 -31.083  0.00  0.00    -0.358 OA
ATOM     20  H   UNL d   1      12.824 -12.879 -30.739  0.00  0.00     0.217 HD
ENDBRANCH  14  19
ENDBRANCH   3  11
BRANCH   2  21
ATOM     21  O   UNL d   1      13.751 -17.637 -30.604  0.00  0.00    -0.392 OA
ATOM     22  H   UNL d   1      13.551 -17.125 -30.892  0.00  0.00     0.210 HD
ENDBRANCH   2  21
BRANCH   7  23
ATOM     23  O   UNL d   1      15.401 -20.061 -28.465  0.00  0.00    -0.360 OA
ATOM     24  H   UNL d   1      15.366 -20.113 -29.081  0.00  0.00     0.217 HD
ENDBRANCH   7  23
BRANCH  10  25
ATOM     25  O   UNL d   1      16.823 -18.082 -25.898  0.00  0.00    -0.361 OA
ATOM     26  H   UNL d   1      17.414 -17.898 -25.920  0.00  0.00     0.217 HD
ENDBRANCH  10  25
TORSDOF 6
ENDMDL
MODEL 2
REMARK VINA RESULT:    -8.443     40.153     41.008
REMARK INTER + INTRA:          -6.710
REMARK INTER:                 -10.212
REMARK INTRA:                   3.502
REMARK UNBOUND:                 3.461
REMARK  6 active torsions:
REMARK  status: ('A' for Active; 'I' for Inactive)
REMARK    1  A    between atoms: O_2  and  C_7 
REMARK    2  A    between atoms: O_3  and  C_13 
REMARK    3  A    between atoms: O_4  and  C_18 
REMARK    4  A    between atoms: O_5  and  C_19 
REMARK    5  A    between atoms: O_6  and  C_21 
REMARK    6  A    between atoms: C_8  and  C_12 
ROOT
ATOM      1  O   UNL d   1      43.273  11.378 -37.268  0.00  0.00    -0.338 OA
ATOM      2  C   UNL d   1      43.640  11.732 -35.613  0.00  0.00     0.156 A 
ATOM      3  C   UNL d   1      43.111  11.916 -36.441  0.00  0.00     0.191 A 
ATOM      4  C   UNL d   1      44.332  11.010 -35.612  0.00  0.00     0.079 A 
ATOM      5  C   UNL d   1      44.495  10.472 -36.439  0.00  0.00     0.011 A 
ATOM      6  C   UNL d   1      43.965  10.656 -37.267  0.00  0.00     0.081 A 
ATOM      7  C   UNL d   1      45.219   9.724 -36.423  0.00  0.00     0.077 A 
ATOM      8  C   UNL d   1      44.123  10.104 -38.136  0.00  0.00     0.074 A 
ATOM      9  C   UNL d   1      45.394   9.159 -37.280  0.00  0.00     0.073 A 
ATOM     10  C   UNL d   1      44.843   9.351 -38.142  0.00  0.00     0.071 A 
ENDROOT
BRANCH   3  11
ATOM     11  C   UNL d   1      42.418  12.637 -36.442  0.00  0.00    -0.024 A 
ATOM     12  C   UNL d   1      41.516  12.465 -36.046  0.00  0.00     0.049 A 
ATOM     13  C   UNL d   1      40.824  13.187 -36.047  0.00  0.00     0.099 A 
ATOM     14  C   UNL d   1      41.034  14.081 -36.444  0.00  0.00     0.098 A 
ATOM     15  C   UNL d   1      41.936  14.252 -36.840  0.00  0.00     0.040 A 
ATOM     16  C   UNL d   1      42.628  13.531 -36.839  0.00  0.00     0.013 A 
BRANCH  13  17
ATOM     17  O   UNL d   1      39.922  13.015 -35.652  0.00  0.00    -0.358 OA
ATOM     18  H   UNL d   1      39.679  13.417 -35.247  0.00  0.00     0.217 HD
ENDBRANCH  13  17
BRANCH  14  19
ATOM     19  O   UNL d   1      40.342  14.802 -36.445  0.00  0.00    -0.358 OA
ATOM     20  H   UNL d   1      39.843  14.753 -36.811  0.00  0.00     0.217 HD
ENDBRANCH  14  19
ENDBRANCH   3  11
BRANCH   2  21
ATOM     21  O   UNL d   1      43.478  12.270 -34.786  0.00  0.00    -0.392 OA
ATOM     22  H   UNL d   1      42.910  12.489 -34.665  0.00  0.00     0.210 HD
ENDBRANCH   2  21
BRANCH   7  23
ATOM     23  O   UNL d   1      45.743   9.549 -35.589  0.00  0.00    -0.360 OA
ATOM     24  H   UNL d   1      45.506   9.187 -35.145  0.00  0.00     0.217 HD
ENDBRANCH   7  23
BRANCH  10  25
ATOM     25  O   UNL d   1      45.003   8.814 -38.971  0.00  0.00    -0.361 OA
ATOM     26  H   UNL d   1      45.550   8.844 -39.259  0.00  0.00     0.217 HD
ENDBRANCH  10  25
TORSDOF 6
ENDMDL
MODEL 3
REMARK VINA RESULT:    -8.389     75.738     77.341
REMARK INTER + INTRA:          -6.645
REMARK INTER:                 -10.154
REMARK INTRA:                   3.510
REMARK UNBOUND:                 3.461
REMARK  6 active torsions:
REMARK  status: ('A' for Active; 'I' for Inactive)
REMARK    1  A    between atoms: O_2  and  C_7 
REMARK    2  A    between atoms: O_3  and  C_13 
REMARK    3  A    between atoms: O_4  and  C_18 
REMARK    4  A    between atoms: O_5  and  C_19 
REMARK    5  A    between atoms: O_6  and  C_21 
REMARK    6  A    between atoms: C_8  and  C_12 
ROOT
ATOM      1  O   UNL d   1      35.654  -8.518  45.219  0.00  0.00    -0.338 OA
ATOM      2  C   UNL d   1      35.949  -8.369  43.519  0.00  0.00     0.156 A 
ATOM      3  C   UNL d   1      36.241  -8.676  44.425  0.00  0.00     0.191 A 
ATOM      4  C   UNL d   1      35.071  -7.904  43.407  0.00  0.00     0.079 A 
ATOM      5  C   UNL d   1      34.485  -7.746  44.201  0.00  0.00     0.011 A 
ATOM      6  C   UNL d   1      34.776  -8.053  45.107  0.00  0.00     0.081 A 
ATOM      7  C   UNL d   1      33.573  -7.260  44.069  0.00  0.00     0.077 A 
ATOM      8  C   UNL d   1      34.176  -7.895  45.944  0.00  0.00     0.074 A 
ATOM      9  C   UNL d   1      32.956  -7.092  44.892  0.00  0.00     0.073 A 
ATOM     10  C   UNL d   1      33.260  -7.412  45.835  0.00  0.00     0.071 A 
ENDROOT
BRANCH   3  11
ATOM     11  C   UNL d   1      37.119  -9.142  44.537  0.00  0.00    -0.024 A 
ATOM     12  C   UNL d   1      37.918  -8.631  44.854  0.00  0.00     0.049 A 
ATOM     13  C   UNL d   1      38.796  -9.097  44.966  0.00  0.00     0.099 A 
ATOM     14  C   UNL d   1      38.875 -10.072  44.761  0.00  0.00     0.098 A 
ATOM     15  C   UNL d   1      38.076 -10.582  44.443  0.00  0.00     0.040 A 
ATOM     16  C   UNL d   1      37.198 -10.117  44.331  0.00  0.00     0.013 A 
BRANCH  13  17
ATOM     17  O   UNL d   1      39.595  -8.586  45.284  0.00  0.00    -0.358 OA
ATOM     18  H   UNL d   1      39.816  -8.115  44.947  0.00  0.00     0.217 HD
ENDBRANCH  13  17
BRANCH  14  19
ATOM     19  O   UNL d   1      39.753 -10.537  44.873  0.00  0.00    -0.358 OA
ATOM     20  H   UNL d   1      40.258 -10.318  44.588  0.00  0.00     0.217 HD
ENDBRANCH  14  19
ENDBRANCH   3  11
BRANCH   2  21
ATOM     21  O   UNL d   1      36.536  -8.528  42.725  0.00  0.00    -0.392 OA
ATOM     22  H   UNL d   1      36.488  -9.056  42.404  0.00  0.00     0.210 HD
ENDBRANCH   2  21
BRANCH   7  23
ATOM     23  O   UNL d   1      33.292  -6.957  43.158  0.00  0.00    -0.360 OA
ATOM     24  H   UNL d   1      33.708  -6.925  42.701  0.00  0.00     0.217 HD
ENDBRANCH   7  23
BRANCH  10  25
ATOM     25  O   UNL d   1      32.675  -7.255  46.631  0.00  0.00    -0.361 OA
ATOM     26  H   UNL d   1      32.868  -7.423  47.195  0.00  0.00     0.217 HD
ENDBRANCH  10  25
TORSDOF 6
ENDMDL
MODEL 4
REMARK VINA RESULT:    -8.341     38.823     40.682
REMARK INTER + INTRA:          -6.587
REMARK INTER:                 -10.057
REMARK INTRA:                   3.470
REMARK UNBOUND:                 3.461
REMARK  6 active torsions:
REMARK  status: ('A' for Active; 'I' for Inactive)
REMARK    1  A    between atoms: O_2  and  C_7 
REMARK    2  A    between atoms: O_3  and  C_13 
REMARK    3  A    between atoms: O_4  and  C_18 
REMARK    4  A    between atoms: O_5  and  C_19 
REMARK    5  A    between atoms: O_6  and  C_21 
REMARK    6  A    between atoms: C_8  and  C_12 
ROOT
ATOM      1  O   UNL d   1      42.947  10.913 -36.746  0.00  0.00    -0.338 OA
ATOM      2  C   UNL d   1      43.483  10.959 -38.393  0.00  0.00     0.156 A 
ATOM      3  C   UNL d   1      43.417  10.482 -37.516  0.00  0.00     0.191 A 
ATOM      4  C   UNL d   1      43.078  11.867 -38.499  0.00  0.00     0.079 A 
ATOM      5  C   UNL d   1      42.608  12.299 -37.729  0.00  0.00     0.011 A 
ATOM      6  C   UNL d   1      42.543  11.822 -36.853  0.00  0.00     0.081 A 
ATOM      7  C   UNL d   1      42.192  13.245 -37.855  0.00  0.00     0.077 A 
ATOM      8  C   UNL d   1      42.056  12.258 -36.041  0.00  0.00     0.074 A 
ATOM      9  C   UNL d   1      41.701  13.701 -37.057  0.00  0.00     0.073 A 
ATOM     10  C   UNL d   1      41.633  13.204 -36.145  0.00  0.00     0.071 A 
ENDROOT
BRANCH   3  11
ATOM     11  C   UNL d   1      43.822   9.574 -37.410  0.00  0.00    -0.024 A 
ATOM     12  C   UNL d   1      43.304   8.761 -37.678  0.00  0.00     0.049 A 
ATOM     13  C   UNL d   1      43.708   7.853 -37.572  0.00  0.00     0.099 A 
ATOM     14  C   UNL d   1      44.630   7.757 -37.197  0.00  0.00     0.098 A 
ATOM     15  C   UNL d   1      45.148   8.570 -36.929  0.00  0.00     0.040 A 
ATOM     16  C   UNL d   1      44.744   9.478 -37.036  0.00  0.00     0.013 A 
BRANCH  13  17
ATOM     17  O   UNL d   1      43.190   7.041 -37.839  0.00  0.00    -0.358 OA
ATOM     18  H   UNL d   1      42.579   7.015 -37.738  0.00  0.00     0.217 HD
ENDBRANCH  13  17
BRANCH  14  19
ATOM     19  O   UNL d   1      45.035   6.849 -37.091  0.00  0.00    -0.358 OA
ATOM     20  H   UNL d   1      44.812   6.370 -37.416  0.00  0.00     0.217 HD
ENDBRANCH  14  19
ENDBRANCH   3  11
BRANCH   2  21
ATOM     21  O   UNL d   1      43.953  10.528 -39.163  0.00  0.00    -0.392 OA
ATOM     22  H   UNL d   1      43.634  10.181 -39.566  0.00  0.00     0.210 HD
ENDBRANCH   2  21
BRANCH   7  23
ATOM     23  O   UNL d   1      42.264  13.713 -38.736  0.00  0.00    -0.360 OA
ATOM     24  H   UNL d   1      42.006  14.271 -38.812  0.00  0.00     0.217 HD
ENDBRANCH   7  23
BRANCH  10  25
ATOM     25  O   UNL d   1      41.163  13.632 -35.373  0.00  0.00    -0.361 OA
ATOM     26  H   UNL d   1      40.668  13.991 -35.471  0.00  0.00     0.217 HD
ENDBRANCH  10  25
TORSDOF 6
ENDMDL
MODEL 5
REMARK VINA RESULT:    -8.277      1.275      5.001
REMARK INTER + INTRA:          -6.510
REMARK INTER:                 -10.012
REMARK INTRA:                   3.502
REMARK UNBOUND:                 3.461
REMARK  6 active torsions:
REMARK  status: ('A' for Active; 'I' for Inactive)
REMARK    1  A    between atoms: O_2  and  C_7 
REMARK    2  A    between atoms: O_3  and  C_13 
REMARK    3  A    between atoms: O_4  and  C_18 
REMARK    4  A    between atoms: O_5  and  C_19 
REMARK    5  A    between atoms: O_6  and  C_21 
REMARK    6  A    between atoms: C_8  and  C_12 
ROOT
ATOM      1  O   UNL d   1      13.955 -16.693 -28.150  0.00  0.00    -0.338 OA
ATOM      2  C   UNL d   1      14.771 -17.350 -29.529  0.00  0.00     0.156 A 
ATOM      3  C   UNL d   1      14.657 -17.291 -28.538  0.00  0.00     0.191 A 
ATOM      4  C   UNL d   1      14.183 -16.812 -30.133  0.00  0.00     0.079 A 
ATOM      5  C   UNL d   1      13.482 -16.215 -29.746  0.00  0.00     0.011 A 
ATOM      6  C   UNL d   1      13.368 -16.155 -28.754  0.00  0.00     0.081 A 
ATOM      7  C   UNL d   1      12.877 -15.660 -30.387  0.00  0.00     0.077 A 
ATOM      8  C   UNL d   1      12.641 -15.537 -28.335  0.00  0.00     0.074 A 
ATOM      9  C   UNL d   1      12.143 -15.036 -29.991  0.00  0.00     0.073 A 
ATOM     10  C   UNL d   1      12.025 -14.974 -28.958  0.00  0.00     0.071 A 
ENDROOT
BRANCH   3  11
ATOM     11  C   UNL d   1      15.245 -17.829 -27.933  0.00  0.00    -0.024 A 
ATOM     12  C   UNL d   1      15.051 -18.797 -27.779  0.00  0.00     0.049 A 
ATOM     13  C   UNL d   1      15.638 -19.335 -27.175  0.00  0.00     0.099 A 
ATOM     14  C   UNL d   1      16.421 -18.905 -26.725  0.00  0.00     0.098 A 
ATOM     15  C   UNL d   1      16.615 -17.936 -26.879  0.00  0.00     0.040 A 
ATOM     16  C   UNL d   1      16.027 -17.398 -27.484  0.00  0.00     0.013 A 
BRANCH  13  17
ATOM     17  O   UNL d   1      15.444 -20.304 -27.021  0.00  0.00    -0.358 OA
ATOM     18  H   UNL d   1      15.446 -20.533 -26.444  0.00  0.00     0.217 HD
ENDBRANCH  13  17
BRANCH  14  19
ATOM     19  O   UNL d   1      17.009 -19.443 -26.121  0.00  0.00    -0.358 OA
ATOM     20  H   UNL d   1      17.348 -19.907 -26.352  0.00  0.00     0.217 HD
ENDBRANCH  14  19
ENDBRANCH   3  11
BRANCH   2  21
ATOM     21  O   UNL d   1      15.473 -17.948 -29.917  0.00  0.00    -0.392 OA
ATOM     22  H   UNL d   1      15.577 -17.948 -30.528  0.00  0.00     0.210 HD
ENDBRANCH   2  21
BRANCH   7  23
ATOM     23  O   UNL d   1      13.000 -15.728 -31.377  0.00  0.00    -0.360 OA
ATOM     24  H   UNL d   1      12.736 -15.310 -31.751  0.00  0.00     0.217 HD
ENDBRANCH   7  23
BRANCH  10  25
ATOM     25  O   UNL d   1      11.324 -14.377 -28.567  0.00  0.00    -0.361 OA
ATOM     26  H   UNL d   1      11.480 -13.947 -28.150  0.00  0.00     0.217 HD
ENDBRANCH  10  25
TORSDOF 6
ENDMDL
