MODEL 1
REMARK VINA RESULT:    -6.131      0.000      0.000
REMARK INTER + INTRA:          -5.567
REMARK INTER:                  -7.421
REMARK INTRA:                   1.854
REMARK UNBOUND:                 1.818
REMARK  5 active torsions:
REMARK  status: ('A' for Active; 'I' for Inactive)
REMARK    1  A    between atoms: O_2  and  C_13 
REMARK    2  A    between atoms: O_3  and  C_19 
REMARK    3  A    between atoms: O_5  and  C_17 
REMARK    4  A    between atoms: O_6  and  C_21 
REMARK    5  A    between atoms: C_8  and  C_10 
ROOT
ATOM      1  O   UNL d   1      14.425  -5.034  -0.348  0.00  0.00    -0.309 OA
ATOM      2  O   UNL d   1      12.073  -6.695   0.494  0.00  0.00    -0.287 OA
ATOM      3  C   UNL d   1      13.574  -5.918   0.874  0.00  0.00     0.081 A 
ATOM      4  C   UNL d   1      13.709  -5.257  -1.009  0.00  0.00     0.090 A 
ATOM      5  C   UNL d   1      14.358  -5.364   0.594  0.00  0.00     0.095 A 
ATOM      6  C   UNL d   1      12.857  -6.141   0.213  0.00  0.00     0.190 A 
ATOM      7  C   UNL d   1      12.925  -5.811  -0.728  0.00  0.00     0.094 A 
ATOM      8  C   UNL d   1      13.490  -6.269   1.851  0.00  0.00     0.085 A 
ATOM      9  C   UNL d   1      15.112  -5.123   1.271  0.00  0.00     0.075 A 
ATOM     10  C   UNL d   1      15.048  -5.463   2.253  0.00  0.00     0.071 A 
ATOM     11  C   UNL d   1      14.232  -6.040   2.545  0.00  0.00     0.074 A 
ENDROOT
BRANCH   4  12
ATOM     12  C   UNL d   1      13.776  -4.927  -1.950  0.00  0.00     0.001 A 
ATOM     13  C   UNL d   1      14.438  -5.337  -2.577  0.00  0.00     0.054 A 
ATOM     14  C   UNL d   1      14.506  -5.007  -3.519  0.00  0.00     0.102 A 
ATOM     15  C   UNL d   1      13.912  -4.267  -3.833  0.00  0.00     0.099 A 
ATOM     16  C   UNL d   1      13.250  -3.857  -3.206  0.00  0.00     0.040 A 
ATOM     17  C   UNL d   1      13.182  -4.187  -2.264  0.00  0.00     0.017 A 
BRANCH  14  18
ATOM     18  O   UNL d   1      15.168  -5.417  -4.146  0.00  0.00    -0.353 OA
ATOM     19  C   UNL d   1      15.743  -6.176  -3.841  0.00  0.00     0.210 C 
ENDBRANCH  14  18
BRANCH  15  20
ATOM     20  O   UNL d   1      13.979  -3.936  -4.774  0.00  0.00    -0.358 OA
ATOM     21  H   UNL d   1      13.576  -4.134  -5.202  0.00  0.00     0.217 HD
ENDBRANCH  15  20
ENDBRANCH   4  12
BRANCH   8  22
ATOM     22  O   UNL d   1      12.702  -6.822   2.121  0.00  0.00    -0.360 OA
ATOM     23  H   UNL d   1      12.787  -7.351   2.431  0.00  0.00     0.217 HD
ENDBRANCH   8  22
BRANCH  10  24
ATOM     24  O   UNL d   1      15.767  -5.237   2.911  0.00  0.00    -0.361 OA
ATOM     25  H   UNL d   1      15.784  -4.674   3.170  0.00  0.00     0.217 HD
ENDBRANCH  10  24
TORSDOF 5
ENDMDL
MODEL 2
REMARK VINA RESULT:    -6.080      0.846      1.582
REMARK INTER + INTRA:          -5.506
REMARK INTER:                  -7.415
REMARK INTRA:                   1.909
REMARK UNBOUND:                 1.818
REMARK  5 active torsions:
REMARK  status: ('A' for Active; 'I' for Inactive)
REMARK    1  A    between atoms: O_2  and  C_13 
REMARK    2  A    between atoms: O_3  and  C_19 
REMARK    3  A    between atoms: O_5  and  C_17 
REMARK    4  A    between atoms: O_6  and  C_21 
REMARK    5  A    between atoms: C_8  and  C_10 
ROOT
ATOM      1  O   UNL d   1      14.334  -5.128   0.330  0.00  0.00    -0.309 OA
ATOM      2  O   UNL d   1      12.252  -7.162   1.053  0.00  0.00    -0.287 OA
ATOM      3  C   UNL d   1      13.507  -6.067   1.527  0.00  0.00     0.081 A 
ATOM      4  C   UNL d   1      13.773  -5.545  -0.385  0.00  0.00     0.090 A 
ATOM      5  C   UNL d   1      14.201  -5.388   1.286  0.00  0.00     0.095 A 
ATOM      6  C   UNL d   1      12.946  -6.484   0.812  0.00  0.00     0.190 A 
ATOM      7  C   UNL d   1      13.079  -6.223  -0.144  0.00  0.00     0.094 A 
ATOM      8  C   UNL d   1      13.356  -6.348   2.518  0.00  0.00     0.085 A 
ATOM      9  C   UNL d   1      14.793  -4.945   2.019  0.00  0.00     0.075 A 
ATOM     10  C   UNL d   1      14.659  -5.211   3.017  0.00  0.00     0.071 A 
ATOM     11  C   UNL d   1      13.937  -5.917   3.268  0.00  0.00     0.074 A 
ENDROOT
BRANCH   4  12
ATOM     12  C   UNL d   1      13.907  -5.284  -1.342  0.00  0.00     0.001 A 
ATOM     13  C   UNL d   1      13.259  -4.666  -1.786  0.00  0.00     0.054 A 
ATOM     14  C   UNL d   1      13.392  -4.406  -2.743  0.00  0.00     0.102 A 
ATOM     15  C   UNL d   1      14.174  -4.763  -3.254  0.00  0.00     0.099 A 
ATOM     16  C   UNL d   1      14.822  -5.381  -2.809  0.00  0.00     0.040 A 
ATOM     17  C   UNL d   1      14.689  -5.642  -1.853  0.00  0.00     0.017 A 
BRANCH  14  18
ATOM     18  O   UNL d   1      12.744  -3.788  -3.187  0.00  0.00    -0.353 OA
ATOM     19  C   UNL d   1      11.764  -3.876  -3.007  0.00  0.00     0.210 C 
ENDBRANCH  14  18
BRANCH  15  20
ATOM     20  O   UNL d   1      14.307  -4.502  -4.210  0.00  0.00    -0.358 OA
ATOM     21  H   UNL d   1      14.803  -4.707  -4.521  0.00  0.00     0.217 HD
ENDBRANCH  15  20
ENDBRANCH   4  12
BRANCH   8  22
ATOM     22  O   UNL d   1      12.659  -7.027   2.748  0.00  0.00    -0.360 OA
ATOM     23  H   UNL d   1      12.561  -7.183   3.339  0.00  0.00     0.217 HD
ENDBRANCH   8  22
BRANCH  10  24
ATOM     24  O   UNL d   1      15.222  -4.791   3.729  0.00  0.00    -0.361 OA
ATOM     25  H   UNL d   1      15.740  -5.073   3.921  0.00  0.00     0.217 HD
ENDBRANCH  10  24
TORSDOF 5
ENDMDL
MODEL 3
REMARK VINA RESULT:    -6.049      1.826      4.361
REMARK INTER + INTRA:          -5.469
REMARK INTER:                  -7.354
REMARK INTRA:                   1.885
REMARK UNBOUND:                 1.818
REMARK  5 active torsions:
REMARK  status: ('A' for Active; 'I' for Inactive)
REMARK    1  A    between atoms: O_2  and  C_13 
REMARK    2  A    between atoms: O_3  and  C_19 
REMARK    3  A    between atoms: O_5  and  C_17 
REMARK    4  A    between atoms: O_6  and  C_21 
REMARK    5  A    between atoms: C_8  and  C_10 
ROOT
ATOM      1  O   UNL d   1      14.379  -4.957  -0.093  0.00  0.00    -0.309 OA
ATOM      2  O   UNL d   1      12.630  -7.015   1.212  0.00  0.00    -0.287 OA
ATOM      3  C   UNL d   1      12.911  -5.875  -0.061  0.00  0.00     0.081 A 
ATOM      4  C   UNL d   1      14.681  -5.411   0.746  0.00  0.00     0.090 A 
ATOM      5  C   UNL d   1      13.494  -5.189  -0.496  0.00  0.00     0.095 A 
ATOM      6  C   UNL d   1      13.213  -6.329   0.777  0.00  0.00     0.190 A 
ATOM      7  C   UNL d   1      14.098  -6.097   1.181  0.00  0.00     0.094 A 
ATOM      8  C   UNL d   1      11.987  -6.127  -0.470  0.00  0.00     0.085 A 
ATOM      9  C   UNL d   1      13.194  -4.708  -1.370  0.00  0.00     0.075 A 
ATOM     10  C   UNL d   1      12.273  -4.945  -1.796  0.00  0.00     0.071 A 
ATOM     11  C   UNL d   1      11.666  -5.659  -1.343  0.00  0.00     0.074 A 
ENDROOT
BRANCH   4  12
ATOM     12  C   UNL d   1      15.566  -5.179   1.149  0.00  0.00     0.001 A 
ATOM     13  C   UNL d   1      16.412  -5.437   0.683  0.00  0.00     0.054 A 
ATOM     14  C   UNL d   1      17.297  -5.205   1.086  0.00  0.00     0.102 A 
ATOM     15  C   UNL d   1      17.336  -4.714   1.956  0.00  0.00     0.099 A 
ATOM     16  C   UNL d   1      16.491  -4.455   2.423  0.00  0.00     0.040 A 
ATOM     17  C   UNL d   1      15.606  -4.688   2.020  0.00  0.00     0.017 A 
BRANCH  14  18
ATOM     18  O   UNL d   1      18.143  -5.464   0.619  0.00  0.00    -0.353 OA
ATOM     19  C   UNL d   1      18.117  -5.754  -0.337  0.00  0.00     0.210 C 
ENDBRANCH  14  18
BRANCH  15  20
ATOM     20  O   UNL d   1      18.221  -4.482   2.360  0.00  0.00    -0.358 OA
ATOM     21  H   UNL d   1      18.354  -4.659   2.939  0.00  0.00     0.217 HD
ENDBRANCH  15  20
ENDBRANCH   4  12
BRANCH   8  22
ATOM     22  O   UNL d   1      11.412  -6.815  -0.026  0.00  0.00    -0.360 OA
ATOM     23  H   UNL d   1      10.802  -6.720   0.029  0.00  0.00     0.217 HD
ENDBRANCH   8  22
BRANCH  10  24
ATOM     24  O   UNL d   1      11.975  -4.488  -2.635  0.00  0.00    -0.361 OA
ATOM     25  H   UNL d   1      12.368  -4.122  -2.944  0.00  0.00     0.217 HD
ENDBRANCH  10  24
TORSDOF 5
ENDMDL
MODEL 4
REMARK VINA RESULT:    -5.979      1.215      5.045
REMARK INTER + INTRA:          -5.384
REMARK INTER:                  -7.306
REMARK INTRA:                   1.921
REMARK UNBOUND:                 1.818
REMARK  5 active torsions:
REMARK  status: ('A' for Active; 'I' for Inactive)
REMARK    1  A    between atoms: O_2  and  C_13 
REMARK    2  A    between atoms: O_3  and  C_19 
REMARK    3  A    between atoms: O_5  and  C_17 
REMARK    4  A    between atoms: O_6  and  C_21 
REMARK    5  A    between atoms: C_8  and  C_10 
ROOT
ATOM      1  O   UNL d   1      14.138  -5.421  -1.640  0.00  0.00    -0.309 OA
ATOM      2  O   UNL d   1      11.577  -3.913  -2.048  0.00  0.00    -0.287 OA
ATOM      3  C   UNL d   1      13.085  -4.501  -2.662  0.00  0.00     0.081 A 
ATOM      4  C   UNL d   1      13.483  -5.335  -0.889  0.00  0.00     0.090 A 
ATOM      5  C   UNL d   1      13.939  -5.004  -2.526  0.00  0.00     0.095 A 
ATOM      6  C   UNL d   1      12.431  -4.415  -1.912  0.00  0.00     0.190 A 
ATOM      7  C   UNL d   1      12.629  -4.832  -1.025  0.00  0.00     0.094 A 
ATOM      8  C   UNL d   1      12.865  -4.062  -3.580  0.00  0.00     0.085 A 
ATOM      9  C   UNL d   1      14.631  -5.101  -3.299  0.00  0.00     0.075 A 
ATOM     10  C   UNL d   1      14.431  -4.670  -4.226  0.00  0.00     0.071 A 
ATOM     11  C   UNL d   1      13.542  -4.147  -4.367  0.00  0.00     0.074 A 
ENDROOT
BRANCH   4  12
ATOM     12  C   UNL d   1      13.682  -5.752  -0.002  0.00  0.00     0.001 A 
ATOM     13  C   UNL d   1      14.484  -5.460   0.520  0.00  0.00     0.054 A 
ATOM     14  C   UNL d   1      14.683  -5.877   1.406  0.00  0.00     0.102 A 
ATOM     15  C   UNL d   1      14.080  -6.586   1.772  0.00  0.00     0.099 A 
ATOM     16  C   UNL d   1      13.278  -6.878   1.251  0.00  0.00     0.040 A 
ATOM     17  C   UNL d   1      13.079  -6.461   0.364  0.00  0.00     0.017 A 
BRANCH  14  18
ATOM     18  O   UNL d   1      15.484  -5.585   1.928  0.00  0.00    -0.353 OA
ATOM     19  C   UNL d   1      15.960  -4.740   1.682  0.00  0.00     0.210 C 
ENDBRANCH  14  18
BRANCH  15  20
ATOM     20  O   UNL d   1      14.279  -7.003   2.659  0.00  0.00    -0.358 OA
ATOM     21  H   UNL d   1      14.785  -6.834   2.974  0.00  0.00     0.217 HD
ENDBRANCH  15  20
ENDBRANCH   4  12
BRANCH   8  22
ATOM     22  O   UNL d   1      12.008  -3.561  -3.705  0.00  0.00    -0.360 OA
ATOM     23  H   UNL d   1      11.574  -3.576  -3.263  0.00  0.00     0.217 HD
ENDBRANCH   8  22
BRANCH  10  24
ATOM     24  O   UNL d   1      15.089  -4.758  -4.974  0.00  0.00    -0.361 OA
ATOM     25  H   UNL d   1      15.533  -5.190  -4.947  0.00  0.00     0.217 HD
ENDBRANCH  10  24
TORSDOF 5
ENDMDL
MODEL 5
REMARK VINA RESULT:    -5.979     12.502     13.929
REMARK INTER + INTRA:          -5.384
REMARK INTER:                  -7.327
REMARK INTRA:                   1.943
REMARK UNBOUND:                 1.818
REMARK  5 active torsions:
REMARK  status: ('A' for Active; 'I' for Inactive)
REMARK    1  A    between atoms: O_2  and  C_13 
REMARK    2  A    between atoms: O_3  and  C_19 
REMARK    3  A    between atoms: O_5  and  C_17 
REMARK    4  A    between atoms: O_6  and  C_21 
REMARK    5  A    between atoms: C_8  and  C_10 
ROOT
ATOM      1  O   UNL d   1       5.853   4.571   2.688  0.00  0.00    -0.309 OA
ATOM      2  O   UNL d   1       8.794   4.224   3.167  0.00  0.00    -0.287 OA
ATOM      3  C   UNL d   1       7.484   4.626   2.108  0.00  0.00     0.081 A 
ATOM      4  C   UNL d   1       6.183   4.285   3.588  0.00  0.00     0.090 A 
ATOM      5  C   UNL d   1       6.504   4.742   1.948  0.00  0.00     0.095 A 
ATOM      6  C   UNL d   1       7.814   4.340   3.007  0.00  0.00     0.190 A 
ATOM      7  C   UNL d   1       7.163   4.169   3.747  0.00  0.00     0.094 A 
ATOM      8  C   UNL d   1       8.173   4.800   1.347  0.00  0.00     0.085 A 
ATOM      9  C   UNL d   1       6.145   5.040   1.017  0.00  0.00     0.075 A 
ATOM     10  C   UNL d   1       6.816   5.219   0.241  0.00  0.00     0.071 A 
ATOM     11  C   UNL d   1       7.837   5.099   0.407  0.00  0.00     0.074 A 
ENDROOT
BRANCH   4  12
ATOM     12  C   UNL d   1       5.532   4.114   4.328  0.00  0.00     0.001 A 
ATOM     13  C   UNL d   1       5.524   3.228   4.792  0.00  0.00     0.054 A 
ATOM     14  C   UNL d   1       4.873   3.058   5.532  0.00  0.00     0.102 A 
ATOM     15  C   UNL d   1       4.231   3.773   5.808  0.00  0.00     0.099 A 
ATOM     16  C   UNL d   1       4.239   4.658   5.343  0.00  0.00     0.040 A 
ATOM     17  C   UNL d   1       4.890   4.829   4.603  0.00  0.00     0.017 A 
BRANCH  14  18
ATOM     18  O   UNL d   1       4.865   2.172   5.996  0.00  0.00    -0.353 OA
ATOM     19  C   UNL d   1       5.592   1.508   5.820  0.00  0.00     0.210 C 
ENDBRANCH  14  18
BRANCH  15  20
ATOM     20  O   UNL d   1       3.580   3.602   6.547  0.00  0.00    -0.358 OA
ATOM     21  H   UNL d   1       3.655   3.111   6.919  0.00  0.00     0.217 HD
ENDBRANCH  15  20
ENDBRANCH   4  12
BRANCH   8  22
ATOM     22  O   UNL d   1       9.151   4.682   1.518  0.00  0.00    -0.360 OA
ATOM     23  H   UNL d   1       9.343   4.305   1.971  0.00  0.00     0.217 HD
ENDBRANCH   8  22
BRANCH  10  24
ATOM     24  O   UNL d   1       6.482   5.505  -0.657  0.00  0.00    -0.361 OA
ATOM     25  H   UNL d   1       5.978   5.239  -0.899  0.00  0.00     0.217 HD
ENDBRANCH  10  24
TORSDOF 5
ENDMDL
