MODEL 1
REMARK VINA RESULT:    -6.227      0.000      0.000
REMARK INTER + INTRA:          -4.034
REMARK INTER:                  -7.510
REMARK INTRA:                   3.476
REMARK UNBOUND:                 3.468
REMARK  6 active torsions:
REMARK  status: ('A' for Active; 'I' for Inactive)
REMARK    1  A    between atoms: O_2  and  C_7 
REMARK    2  A    between atoms: O_3  and  C_13 
REMARK    3  A    between atoms: O_4  and  C_18 
REMARK    4  A    between atoms: O_5  and  C_19 
REMARK    5  A    between atoms: O_6  and  C_21 
REMARK    6  A    between atoms: C_8  and  C_12 
ROOT
ATOM      1  O   UNL d   1      14.236  -5.543  -2.506  0.00  0.00    -0.338 OA
ATOM      2  C   UNL d   1      12.958  -4.392  -2.300  0.00  0.00     0.156 A 
ATOM      3  C   UNL d   1      13.512  -5.145  -1.943  0.00  0.00     0.191 A 
ATOM      4  C   UNL d   1      13.129  -4.038  -3.220  0.00  0.00     0.079 A 
ATOM      5  C   UNL d   1      13.853  -4.437  -3.782  0.00  0.00     0.011 A 
ATOM      6  C   UNL d   1      14.407  -5.189  -3.425  0.00  0.00     0.081 A 
ATOM      7  C   UNL d   1      14.019  -4.058  -4.738  0.00  0.00     0.077 A 
ATOM      8  C   UNL d   1      15.165  -5.615  -4.000  0.00  0.00     0.074 A 
ATOM      9  C   UNL d   1      14.772  -4.468  -5.330  0.00  0.00     0.073 A 
ATOM     10  C   UNL d   1      15.348  -5.251  -4.958  0.00  0.00     0.071 A 
ENDROOT
BRANCH   3  11
ATOM     11  C   UNL d   1      13.341  -5.499  -1.024  0.00  0.00    -0.024 A 
ATOM     12  C   UNL d   1      13.870  -5.153  -0.249  0.00  0.00     0.049 A 
ATOM     13  C   UNL d   1      13.699  -5.507   0.671  0.00  0.00     0.099 A 
ATOM     14  C   UNL d   1      13.000  -6.207   0.815  0.00  0.00     0.098 A 
ATOM     15  C   UNL d   1      12.471  -6.553   0.040  0.00  0.00     0.040 A 
ATOM     16  C   UNL d   1      12.642  -6.199  -0.879  0.00  0.00     0.013 A 
BRANCH  13  17
ATOM     17  O   UNL d   1      14.227  -5.160   1.446  0.00  0.00    -0.358 OA
ATOM     18  H   UNL d   1      14.824  -5.317   1.509  0.00  0.00     0.217 HD
ENDBRANCH  13  17
BRANCH  14  19
ATOM     19  O   UNL d   1      12.829  -6.561   1.735  0.00  0.00    -0.358 OA
ATOM     20  H   UNL d   1      12.906  -6.193   2.228  0.00  0.00     0.217 HD
ENDBRANCH  14  19
ENDBRANCH   3  11
BRANCH   2  21
ATOM     21  O   UNL d   1      12.234  -3.994  -1.737  0.00  0.00    -0.392 OA
ATOM     22  H   UNL d   1      12.188  -4.146  -1.138  0.00  0.00     0.210 HD
ENDBRANCH   2  21
BRANCH   7  23
ATOM     23  O   UNL d   1      13.460  -3.305  -5.084  0.00  0.00    -0.360 OA
ATOM     24  H   UNL d   1      13.128  -3.379  -5.603  0.00  0.00     0.217 HD
ENDBRANCH   7  23
BRANCH  10  25
ATOM     25  O   UNL d   1      16.073  -5.652  -5.518  0.00  0.00    -0.361 OA
ATOM     26  H   UNL d   1      16.312  -5.332  -5.992  0.00  0.00     0.217 HD
ENDBRANCH  10  25
TORSDOF 6
ENDMDL
MODEL 2
REMARK VINA RESULT:    -5.729      2.591      4.420
REMARK INTER + INTRA:          -3.433
REMARK INTER:                  -6.909
REMARK INTRA:                   3.476
REMARK UNBOUND:                 3.468
REMARK  6 active torsions:
REMARK  status: ('A' for Active; 'I' for Inactive)
REMARK    1  A    between atoms: O_2  and  C_7 
REMARK    2  A    between atoms: O_3  and  C_13 
REMARK    3  A    between atoms: O_4  and  C_18 
REMARK    4  A    between atoms: O_5  and  C_19 
REMARK    5  A    between atoms: O_6  and  C_21 
REMARK    6  A    between atoms: C_8  and  C_12 
ROOT
ATOM      1  O   UNL d   1      14.454  -5.024  -0.240  0.00  0.00    -0.338 OA
ATOM      2  C   UNL d   1      14.361  -6.312   0.914  0.00  0.00     0.156 A 
ATOM      3  C   UNL d   1      14.873  -5.566   0.489  0.00  0.00     0.191 A 
ATOM      4  C   UNL d   1      13.429  -6.516   0.612  0.00  0.00     0.079 A 
ATOM      5  C   UNL d   1      13.010  -5.973  -0.116  0.00  0.00     0.011 A 
ATOM      6  C   UNL d   1      13.523  -5.227  -0.542  0.00  0.00     0.081 A 
ATOM      7  C   UNL d   1      12.040  -6.196  -0.421  0.00  0.00     0.077 A 
ATOM      8  C   UNL d   1      13.100  -4.653  -1.302  0.00  0.00     0.074 A 
ATOM      9  C   UNL d   1      11.597  -5.636  -1.178  0.00  0.00     0.073 A 
ATOM     10  C   UNL d   1      12.130  -4.859  -1.622  0.00  0.00     0.071 A 
ENDROOT
BRANCH   3  11
ATOM     11  C   UNL d   1      15.804  -5.363   0.791  0.00  0.00    -0.024 A 
ATOM     12  C   UNL d   1      15.954  -4.784   1.592  0.00  0.00     0.049 A 
ATOM     13  C   UNL d   1      16.886  -4.581   1.895  0.00  0.00     0.099 A 
ATOM     14  C   UNL d   1      17.667  -4.956   1.395  0.00  0.00     0.098 A 
ATOM     15  C   UNL d   1      17.516  -5.535   0.594  0.00  0.00     0.040 A 
ATOM     16  C   UNL d   1      16.585  -5.738   0.292  0.00  0.00     0.013 A 
BRANCH  13  17
ATOM     17  O   UNL d   1      17.036  -4.002   2.696  0.00  0.00    -0.358 OA
ATOM     18  H   UNL d   1      16.784  -4.156   3.242  0.00  0.00     0.217 HD
ENDBRANCH  13  17
BRANCH  14  19
ATOM     19  O   UNL d   1      18.598  -4.753   1.698  0.00  0.00    -0.358 OA
ATOM     20  H   UNL d   1      18.713  -4.651   2.298  0.00  0.00     0.217 HD
ENDBRANCH  14  19
ENDBRANCH   3  11
BRANCH   2  21
ATOM     21  O   UNL d   1      14.780  -6.855   1.643  0.00  0.00    -0.392 OA
ATOM     22  H   UNL d   1      15.396  -6.858   1.711  0.00  0.00     0.210 HD
ENDBRANCH   2  21
BRANCH   7  23
ATOM     23  O   UNL d   1      11.537  -6.944   0.012  0.00  0.00    -0.360 OA
ATOM     24  H   UNL d   1      11.453  -6.946   0.626  0.00  0.00     0.217 HD
ENDBRANCH   7  23
BRANCH  10  25
ATOM     25  O   UNL d   1      11.714  -4.315  -2.350  0.00  0.00    -0.361 OA
ATOM     26  H   UNL d   1      11.555  -4.583  -2.885  0.00  0.00     0.217 HD
ENDBRANCH  10  25
TORSDOF 6
ENDMDL
MODEL 3
REMARK VINA RESULT:    -5.713      3.469      4.994
REMARK INTER + INTRA:          -3.415
REMARK INTER:                  -6.934
REMARK INTRA:                   3.519
REMARK UNBOUND:                 3.468
REMARK  6 active torsions:
REMARK  status: ('A' for Active; 'I' for Inactive)
REMARK    1  A    between atoms: O_2  and  C_7 
REMARK    2  A    between atoms: O_3  and  C_13 
REMARK    3  A    between atoms: O_4  and  C_18 
REMARK    4  A    between atoms: O_5  and  C_19 
REMARK    5  A    between atoms: O_6  and  C_21 
REMARK    6  A    between atoms: C_8  and  C_12 
ROOT
ATOM      1  O   UNL d   1      15.957  -5.668   0.610  0.00  0.00    -0.338 OA
ATOM      2  C   UNL d   1      15.195  -4.845   1.930  0.00  0.00     0.156 A 
ATOM      3  C   UNL d   1      15.130  -5.420   1.115  0.00  0.00     0.191 A 
ATOM      4  C   UNL d   1      16.087  -4.517   2.241  0.00  0.00     0.079 A 
ATOM      5  C   UNL d   1      16.914  -4.765   1.736  0.00  0.00     0.011 A 
ATOM      6  C   UNL d   1      16.849  -5.341   0.921  0.00  0.00     0.081 A 
ATOM      7  C   UNL d   1      17.837  -4.417   2.072  0.00  0.00     0.077 A 
ATOM      8  C   UNL d   1      17.702  -5.608   0.385  0.00  0.00     0.074 A 
ATOM      9  C   UNL d   1      18.702  -4.672   1.552  0.00  0.00     0.073 A 
ATOM     10  C   UNL d   1      18.635  -5.271   0.703  0.00  0.00     0.071 A 
ENDROOT
BRANCH   3  11
ATOM     11  C   UNL d   1      14.237  -5.747   0.804  0.00  0.00    -0.024 A 
ATOM     12  C   UNL d   1      13.800  -6.520   1.263  0.00  0.00     0.049 A 
ATOM     13  C   UNL d   1      12.908  -6.848   0.953  0.00  0.00     0.099 A 
ATOM     14  C   UNL d   1      12.453  -6.402   0.182  0.00  0.00     0.098 A 
ATOM     15  C   UNL d   1      12.890  -5.629  -0.278  0.00  0.00     0.040 A 
ATOM     16  C   UNL d   1      13.782  -5.302   0.033  0.00  0.00     0.013 A 
BRANCH  13  17
ATOM     17  O   UNL d   1      12.471  -7.621   1.412  0.00  0.00    -0.358 OA
ATOM     18  H   UNL d   1      12.634  -7.769   1.992  0.00  0.00     0.217 HD
ENDBRANCH  13  17
BRANCH  14  19
ATOM     19  O   UNL d   1      11.561  -6.729  -0.129  0.00  0.00    -0.358 OA
ATOM     20  H   UNL d   1      11.352  -6.573  -0.692  0.00  0.00     0.217 HD
ENDBRANCH  14  19
ENDBRANCH   3  11
BRANCH   2  21
ATOM     21  O   UNL d   1      14.368  -4.597   2.434  0.00  0.00    -0.392 OA
ATOM     22  H   UNL d   1      14.327  -4.042   2.709  0.00  0.00     0.210 HD
ENDBRANCH   2  21
BRANCH   7  23
ATOM     23  O   UNL d   1      17.890  -3.842   2.889  0.00  0.00    -0.360 OA
ATOM     24  H   UNL d   1      18.270  -3.353   2.899  0.00  0.00     0.217 HD
ENDBRANCH   7  23
BRANCH  10  25
ATOM     25  O   UNL d   1      19.459  -5.520   0.196  0.00  0.00    -0.361 OA
ATOM     26  H   UNL d   1      19.481  -6.054  -0.117  0.00  0.00     0.217 HD
ENDBRANCH  10  25
TORSDOF 6
ENDMDL
MODEL 4
REMARK VINA RESULT:    -5.696      1.441      2.559
REMARK INTER + INTRA:          -3.393
REMARK INTER:                  -6.863
REMARK INTRA:                   3.470
REMARK UNBOUND:                 3.468
REMARK  6 active torsions:
REMARK  status: ('A' for Active; 'I' for Inactive)
REMARK    1  A    between atoms: O_2  and  C_7 
REMARK    2  A    between atoms: O_3  and  C_13 
REMARK    3  A    between atoms: O_4  and  C_18 
REMARK    4  A    between atoms: O_5  and  C_19 
REMARK    5  A    between atoms: O_6  and  C_21 
REMARK    6  A    between atoms: C_8  and  C_12 
ROOT
ATOM      1  O   UNL d   1      12.868  -5.020  -0.854  0.00  0.00    -0.338 OA
ATOM      2  C   UNL d   1      14.503  -5.569  -1.013  0.00  0.00     0.156 A 
ATOM      3  C   UNL d   1      13.683  -5.441  -0.456  0.00  0.00     0.191 A 
ATOM      4  C   UNL d   1      14.509  -5.276  -1.969  0.00  0.00     0.079 A 
ATOM      5  C   UNL d   1      13.694  -4.855  -2.368  0.00  0.00     0.011 A 
ATOM      6  C   UNL d   1      12.873  -4.727  -1.811  0.00  0.00     0.081 A 
ATOM      7  C   UNL d   1      13.714  -4.555  -3.365  0.00  0.00     0.077 A 
ATOM      8  C   UNL d   1      12.017  -4.291  -2.212  0.00  0.00     0.074 A 
ATOM      9  C   UNL d   1      12.869  -4.116  -3.787  0.00  0.00     0.073 A 
ATOM     10  C   UNL d   1      12.015  -3.983  -3.207  0.00  0.00     0.071 A 
ENDROOT
BRANCH   3  11
ATOM     11  C   UNL d   1      13.678  -5.734   0.500  0.00  0.00    -0.024 A 
ATOM     12  C   UNL d   1      14.030  -5.125   1.212  0.00  0.00     0.049 A 
ATOM     13  C   UNL d   1      14.024  -5.418   2.168  0.00  0.00     0.099 A 
ATOM     14  C   UNL d   1      13.667  -6.319   2.413  0.00  0.00     0.098 A 
ATOM     15  C   UNL d   1      13.315  -6.928   1.701  0.00  0.00     0.040 A 
ATOM     16  C   UNL d   1      13.320  -6.635   0.745  0.00  0.00     0.013 A 
BRANCH  13  17
ATOM     17  O   UNL d   1      14.376  -4.810   2.879  0.00  0.00    -0.358 OA
ATOM     18  H   UNL d   1      14.952  -4.584   2.837  0.00  0.00     0.217 HD
ENDBRANCH  13  17
BRANCH  14  19
ATOM     19  O   UNL d   1      13.662  -6.612   3.369  0.00  0.00    -0.358 OA
ATOM     20  H   UNL d   1      14.009  -7.094   3.547  0.00  0.00     0.217 HD
ENDBRANCH  14  19
ENDBRANCH   3  11
BRANCH   2  21
ATOM     21  O   UNL d   1      15.318  -5.990  -0.615  0.00  0.00    -0.392 OA
ATOM     22  H   UNL d   1      15.301  -6.580  -0.425  0.00  0.00     0.210 HD
ENDBRANCH   2  21
BRANCH   7  23
ATOM     23  O   UNL d   1      14.540  -4.688  -3.913  0.00  0.00    -0.360 OA
ATOM     24  H   UNL d   1      14.754  -5.260  -4.017  0.00  0.00     0.217 HD
ENDBRANCH   7  23
BRANCH  10  25
ATOM     25  O   UNL d   1      11.198  -3.563  -3.602  0.00  0.00    -0.361 OA
ATOM     26  H   UNL d   1      11.040  -3.683  -4.189  0.00  0.00     0.217 HD
ENDBRANCH  10  25
TORSDOF 6
ENDMDL
MODEL 5
REMARK VINA RESULT:    -5.645     10.744     12.637
REMARK INTER + INTRA:          -3.333
REMARK INTER:                  -6.816
REMARK INTRA:                   3.483
REMARK UNBOUND:                 3.468
REMARK  6 active torsions:
REMARK  status: ('A' for Active; 'I' for Inactive)
REMARK    1  A    between atoms: O_2  and  C_7 
REMARK    2  A    between atoms: O_3  and  C_13 
REMARK    3  A    between atoms: O_4  and  C_18 
REMARK    4  A    between atoms: O_5  and  C_19 
REMARK    5  A    between atoms: O_6  and  C_21 
REMARK    6  A    between atoms: C_8  and  C_12 
ROOT
ATOM      1  O   UNL d   1       8.066   5.490  -0.489  0.00  0.00    -0.338 OA
ATOM      2  C   UNL d   1       9.043   4.662   0.677  0.00  0.00     0.156 A 
ATOM      3  C   UNL d   1       8.952   5.123  -0.206  0.00  0.00     0.191 A 
ATOM      4  C   UNL d   1       8.249   4.567   1.276  0.00  0.00     0.079 A 
ATOM      5  C   UNL d   1       7.362   4.934   0.993  0.00  0.00     0.011 A 
ATOM      6  C   UNL d   1       7.271   5.395   0.110  0.00  0.00     0.081 A 
ATOM      7  C   UNL d   1       6.543   4.828   1.628  0.00  0.00     0.077 A 
ATOM      8  C   UNL d   1       6.354   5.782  -0.198  0.00  0.00     0.074 A 
ATOM      9  C   UNL d   1       5.617   5.207   1.339  0.00  0.00     0.073 A 
ATOM     10  C   UNL d   1       5.522   5.687   0.421  0.00  0.00     0.071 A 
ENDROOT
BRANCH   3  11
ATOM     11  C   UNL d   1       9.747   5.218  -0.805  0.00  0.00    -0.024 A 
ATOM     12  C   UNL d   1       9.905   4.553  -1.535  0.00  0.00     0.049 A 
ATOM     13  C   UNL d   1      10.699   4.648  -2.135  0.00  0.00     0.099 A 
ATOM     14  C   UNL d   1      11.336   5.407  -2.004  0.00  0.00     0.098 A 
ATOM     15  C   UNL d   1      11.179   6.072  -1.274  0.00  0.00     0.040 A 
ATOM     16  C   UNL d   1      10.384   5.977  -0.674  0.00  0.00     0.013 A 
BRANCH  13  17
ATOM     17  O   UNL d   1      10.857   3.983  -2.865  0.00  0.00    -0.358 OA
ATOM     18  H   UNL d   1      10.763   3.379  -2.760  0.00  0.00     0.217 HD
ENDBRANCH  13  17
BRANCH  14  19
ATOM     19  O   UNL d   1      12.131   5.502  -2.603  0.00  0.00    -0.358 OA
ATOM     20  H   UNL d   1      12.515   5.022  -2.687  0.00  0.00     0.217 HD
ENDBRANCH  14  19
ENDBRANCH   3  11
BRANCH   2  21
ATOM     21  O   UNL d   1       9.930   4.295   0.960  0.00  0.00    -0.392 OA
ATOM     22  H   UNL d   1       9.992   3.689   1.075  0.00  0.00     0.210 HD
ENDBRANCH   2  21
BRANCH   7  23
ATOM     23  O   UNL d   1       6.646   4.364   2.508  0.00  0.00    -0.360 OA
ATOM     24  H   UNL d   1       6.467   3.775   2.570  0.00  0.00     0.217 HD
ENDBRANCH   7  23
BRANCH  10  25
ATOM     25  O   UNL d   1       4.637   6.055   0.134  0.00  0.00    -0.361 OA
ATOM     26  H   UNL d   1       4.549   6.667   0.110  0.00  0.00     0.217 HD
ENDBRANCH  10  25
TORSDOF 6
ENDMDL
