MODEL 1
REMARK VINA RESULT:    -6.554      0.000      0.000
REMARK INTER + INTRA:          -6.268
REMARK INTER:                  -7.304
REMARK INTRA:                   1.036
REMARK UNBOUND:                 1.053
REMARK  3 active torsions:
REMARK  status: ('A' for Active; 'I' for Inactive)
REMARK    1  A    between atoms: O_2  and  C_10 
REMARK    2  A    between atoms: O_4  and  C_13 
REMARK    3  A    between atoms: C_7  and  C_9 
ROOT
ATOM      1  O   UNL d   1      14.428  -5.046  -0.363  0.00  0.00    -0.309 OA
ATOM      2  O   UNL d   1      12.065  -6.678   0.507  0.00  0.00    -0.287 OA
ATOM      3  C   UNL d   1      13.583  -5.925   0.868  0.00  0.00     0.081 A 
ATOM      4  C   UNL d   1      14.370  -5.381   0.578  0.00  0.00     0.095 A 
ATOM      5  C   UNL d   1      13.698  -5.255  -1.013  0.00  0.00     0.090 A 
ATOM      6  C   UNL d   1      12.853  -6.134   0.217  0.00  0.00     0.190 A 
ATOM      7  C   UNL d   1      13.509  -6.280   1.844  0.00  0.00     0.085 A 
ATOM      8  C   UNL d   1      12.910  -5.800  -0.723  0.00  0.00     0.094 A 
ATOM      9  C   UNL d   1      15.138  -5.155   1.244  0.00  0.00     0.075 A 
ATOM     10  C   UNL d   1      15.085  -5.500   2.226  0.00  0.00     0.071 A 
ATOM     11  C   UNL d   1      14.266  -6.066   2.527  0.00  0.00     0.074 A 
ENDROOT
BRANCH   5  12
ATOM     12  C   UNL d   1      13.755  -4.921  -1.954  0.00  0.00    -0.002 A 
ATOM     13  C   UNL d   1      13.162  -4.175  -2.256  0.00  0.00     0.014 A 
ATOM     14  C   UNL d   1      13.219  -3.840  -3.197  0.00  0.00     0.001 A 
ATOM     15  C   UNL d   1      13.870  -4.251  -3.835  0.00  0.00     0.000 A 
ATOM     16  C   UNL d   1      14.463  -4.997  -3.532  0.00  0.00     0.001 A 
ATOM     17  C   UNL d   1      14.406  -5.332  -2.592  0.00  0.00     0.014 A 
ENDBRANCH   5  12
BRANCH   7  18
ATOM     18  O   UNL d   1      12.717  -6.823   2.123  0.00  0.00    -0.360 OA
ATOM     19  H   UNL d   1      12.681  -7.421   1.965  0.00  0.00     0.217 HD
ENDBRANCH   7  18
BRANCH  10  20
ATOM     20  O   UNL d   1      15.818  -5.288   2.873  0.00  0.00    -0.361 OA
ATOM     21  H   UNL d   1      15.685  -5.196   3.472  0.00  0.00     0.217 HD
ENDBRANCH  10  20
TORSDOF 3
ENDMDL
MODEL 2
REMARK VINA RESULT:    -6.324      2.194      3.876
REMARK INTER + INTRA:          -6.011
REMARK INTER:                  -7.348
REMARK INTRA:                   1.337
REMARK UNBOUND:                 1.053
REMARK  3 active torsions:
REMARK  status: ('A' for Active; 'I' for Inactive)
REMARK    1  A    between atoms: O_2  and  C_10 
REMARK    2  A    between atoms: O_4  and  C_13 
REMARK    3  A    between atoms: C_7  and  C_9 
ROOT
ATOM      1  O   UNL d   1      14.273  -4.678  -3.620  0.00  0.00    -0.309 OA
ATOM      2  O   UNL d   1      11.477  -3.617  -3.378  0.00  0.00    -0.287 OA
ATOM      3  C   UNL d   1      12.864  -4.367  -2.661  0.00  0.00     0.081 A 
ATOM      4  C   UNL d   1      13.796  -4.720  -2.742  0.00  0.00     0.095 A 
ATOM      5  C   UNL d   1      13.818  -4.281  -4.417  0.00  0.00     0.090 A 
ATOM      6  C   UNL d   1      12.409  -3.971  -3.459  0.00  0.00     0.190 A 
ATOM      7  C   UNL d   1      12.355  -4.405  -1.754  0.00  0.00     0.085 A 
ATOM      8  C   UNL d   1      12.886  -3.928  -4.337  0.00  0.00     0.094 A 
ATOM      9  C   UNL d   1      14.283  -5.136  -1.920  0.00  0.00     0.075 A 
ATOM     10  C   UNL d   1      13.793  -5.184  -1.002  0.00  0.00     0.071 A 
ATOM     11  C   UNL d   1      12.823  -4.816  -0.919  0.00  0.00     0.074 A 
ENDROOT
BRANCH   5  12
ATOM     12  C   UNL d   1      14.295  -4.239  -5.295  0.00  0.00    -0.002 A 
ATOM     13  C   UNL d   1      15.008  -4.906  -5.509  0.00  0.00     0.014 A 
ATOM     14  C   UNL d   1      15.485  -4.863  -6.387  0.00  0.00     0.001 A 
ATOM     15  C   UNL d   1      15.248  -4.153  -7.051  0.00  0.00     0.000 A 
ATOM     16  C   UNL d   1      14.535  -3.486  -6.836  0.00  0.00     0.001 A 
ATOM     17  C   UNL d   1      14.058  -3.529  -5.959  0.00  0.00     0.014 A 
ENDBRANCH   5  12
BRANCH   7  18
ATOM     18  O   UNL d   1      11.423  -4.048  -1.685  0.00  0.00    -0.360 OA
ATOM     19  H   UNL d   1      11.158  -3.777  -2.175  0.00  0.00     0.217 HD
ENDBRANCH   7  18
BRANCH  10  20
ATOM     20  O   UNL d   1      14.252  -5.581  -0.207  0.00  0.00    -0.361 OA
ATOM     21  H   UNL d   1      14.206  -6.189  -0.095  0.00  0.00     0.217 HD
ENDBRANCH  10  20
TORSDOF 3
ENDMDL
MODEL 3
REMARK VINA RESULT:    -6.113     11.123     12.224
REMARK INTER + INTRA:          -5.776
REMARK INTER:                  -6.802
REMARK INTRA:                   1.026
REMARK UNBOUND:                 1.053
REMARK  3 active torsions:
REMARK  status: ('A' for Active; 'I' for Inactive)
REMARK    1  A    between atoms: O_2  and  C_10 
REMARK    2  A    between atoms: O_4  and  C_13 
REMARK    3  A    between atoms: C_7  and  C_9 
ROOT
ATOM      1  O   UNL d   1       8.523   5.426  -0.469  0.00  0.00    -0.309 OA
ATOM      2  O   UNL d   1       8.115   4.039   2.160  0.00  0.00    -0.287 OA
ATOM      3  C   UNL d   1       7.465   4.856   0.778  0.00  0.00     0.081 A 
ATOM      4  C   UNL d   1       7.601   5.319  -0.098  0.00  0.00     0.095 A 
ATOM      5  C   UNL d   1       9.310   5.071   0.036  0.00  0.00     0.090 A 
ATOM      6  C   UNL d   1       8.251   4.501   1.283  0.00  0.00     0.190 A 
ATOM      7  C   UNL d   1       6.510   4.737   1.177  0.00  0.00     0.085 A 
ATOM      8  C   UNL d   1       9.174   4.609   0.913  0.00  0.00     0.094 A 
ATOM      9  C   UNL d   1       6.791   5.694  -0.636  0.00  0.00     0.075 A 
ATOM     10  C   UNL d   1       5.828   5.586  -0.256  0.00  0.00     0.071 A 
ATOM     11  C   UNL d   1       5.686   5.105   0.656  0.00  0.00     0.074 A 
ENDROOT
BRANCH   5  12
ATOM     12  C   UNL d   1      10.232   5.179  -0.334  0.00  0.00    -0.002 A 
ATOM     13  C   UNL d   1      10.853   5.858   0.057  0.00  0.00     0.014 A 
ATOM     14  C   UNL d   1      11.775   5.965  -0.313  0.00  0.00     0.001 A 
ATOM     15  C   UNL d   1      12.077   5.393  -1.076  0.00  0.00     0.000 A 
ATOM     16  C   UNL d   1      11.456   4.714  -1.468  0.00  0.00     0.001 A 
ATOM     17  C   UNL d   1      10.534   4.607  -1.097  0.00  0.00     0.014 A 
ENDBRANCH   5  12
BRANCH   7  18
ATOM     18  O   UNL d   1       6.386   4.273   2.054  0.00  0.00    -0.360 OA
ATOM     19  H   UNL d   1       6.803   3.857   2.245  0.00  0.00     0.217 HD
ENDBRANCH   7  18
BRANCH  10  20
ATOM     20  O   UNL d   1       5.044   5.943  -0.765  0.00  0.00    -0.361 OA
ATOM     21  H   UNL d   1       4.548   6.155  -0.460  0.00  0.00     0.217 HD
ENDBRANCH  10  20
TORSDOF 3
ENDMDL
MODEL 4
REMARK VINA RESULT:    -6.109      1.445      3.955
REMARK INTER + INTRA:          -5.771
REMARK INTER:                  -6.807
REMARK INTRA:                   1.036
REMARK UNBOUND:                 1.053
REMARK  3 active torsions:
REMARK  status: ('A' for Active; 'I' for Inactive)
REMARK    1  A    between atoms: O_2  and  C_10 
REMARK    2  A    between atoms: O_4  and  C_13 
REMARK    3  A    between atoms: C_7  and  C_9 
ROOT
ATOM      1  O   UNL d   1      14.407  -4.945  -0.271  0.00  0.00    -0.309 OA
ATOM      2  O   UNL d   1      12.569  -6.925   1.035  0.00  0.00    -0.287 OA
ATOM      3  C   UNL d   1      12.886  -5.773  -0.220  0.00  0.00     0.081 A 
ATOM      4  C   UNL d   1      13.499  -5.113  -0.655  0.00  0.00     0.095 A 
ATOM      5  C   UNL d   1      14.702  -5.436   0.548  0.00  0.00     0.090 A 
ATOM      6  C   UNL d   1      13.182  -6.265   0.599  0.00  0.00     0.190 A 
ATOM      7  C   UNL d   1      11.938  -5.959  -0.609  0.00  0.00     0.085 A 
ATOM      8  C   UNL d   1      14.090  -6.096   0.983  0.00  0.00     0.094 A 
ATOM      9  C   UNL d   1      13.206  -4.594  -1.509  0.00  0.00     0.075 A 
ATOM     10  C   UNL d   1      12.261  -4.764  -1.915  0.00  0.00     0.071 A 
ATOM     11  C   UNL d   1      11.624  -5.451  -1.462  0.00  0.00     0.074 A 
ENDROOT
BRANCH   5  12
ATOM     12  C   UNL d   1      15.610  -5.268   0.932  0.00  0.00    -0.002 A 
ATOM     13  C   UNL d   1      15.705  -4.754   1.785  0.00  0.00     0.014 A 
ATOM     14  C   UNL d   1      16.612  -4.585   2.169  0.00  0.00     0.001 A 
ATOM     15  C   UNL d   1      17.425  -4.931   1.700  0.00  0.00     0.000 A 
ATOM     16  C   UNL d   1      17.331  -5.445   0.848  0.00  0.00     0.001 A 
ATOM     17  C   UNL d   1      16.423  -5.614   0.464  0.00  0.00     0.014 A 
ENDBRANCH   5  12
BRANCH   7  18
ATOM     18  O   UNL d   1      11.334  -6.621  -0.165  0.00  0.00    -0.360 OA
ATOM     19  H   UNL d   1      11.505  -6.888   0.367  0.00  0.00     0.217 HD
ENDBRANCH   7  18
BRANCH  10  20
ATOM     20  O   UNL d   1      11.970  -4.270  -2.734  0.00  0.00    -0.361 OA
ATOM     21  H   UNL d   1      12.322  -4.282  -3.245  0.00  0.00     0.217 HD
ENDBRANCH  10  20
TORSDOF 3
ENDMDL
MODEL 5
REMARK VINA RESULT:    -6.060      1.900      4.789
REMARK INTER + INTRA:          -5.716
REMARK INTER:                  -6.849
REMARK INTRA:                   1.133
REMARK UNBOUND:                 1.053
REMARK  3 active torsions:
REMARK  status: ('A' for Active; 'I' for Inactive)
REMARK    1  A    between atoms: O_2  and  C_10 
REMARK    2  A    between atoms: O_4  and  C_13 
REMARK    3  A    between atoms: C_7  and  C_9 
ROOT
ATOM      1  O   UNL d   1      14.121  -5.186  -1.812  0.00  0.00    -0.309 OA
ATOM      2  O   UNL d   1      11.439  -3.885  -2.156  0.00  0.00    -0.287 OA
ATOM      3  C   UNL d   1      12.968  -4.367  -2.812  0.00  0.00     0.081 A 
ATOM      4  C   UNL d   1      13.862  -4.800  -2.698  0.00  0.00     0.095 A 
ATOM      5  C   UNL d   1      13.486  -5.139  -1.041  0.00  0.00     0.090 A 
ATOM      6  C   UNL d   1      12.333  -4.319  -2.041  0.00  0.00     0.190 A 
ATOM      7  C   UNL d   1      12.685  -3.960  -3.728  0.00  0.00     0.085 A 
ATOM      8  C   UNL d   1      12.592  -4.705  -1.156  0.00  0.00     0.094 A 
ATOM      9  C   UNL d   1      14.535  -4.857  -3.491  0.00  0.00     0.075 A 
ATOM     10  C   UNL d   1      14.272  -4.458  -4.417  0.00  0.00     0.071 A 
ATOM     11  C   UNL d   1      13.342  -4.006  -4.536  0.00  0.00     0.074 A 
ENDROOT
BRANCH   5  12
ATOM     12  C   UNL d   1      13.744  -5.525  -0.156  0.00  0.00    -0.002 A 
ATOM     13  C   UNL d   1      13.158  -6.206   0.283  0.00  0.00     0.014 A 
ATOM     14  C   UNL d   1      13.417  -6.592   1.169  0.00  0.00     0.001 A 
ATOM     15  C   UNL d   1      14.262  -6.297   1.615  0.00  0.00     0.000 A 
ATOM     16  C   UNL d   1      14.848  -5.615   1.176  0.00  0.00     0.001 A 
ATOM     17  C   UNL d   1      14.589  -5.229   0.291  0.00  0.00     0.014 A 
ENDBRANCH   5  12
BRANCH   7  18
ATOM     18  O   UNL d   1      11.789  -3.529  -3.831  0.00  0.00    -0.360 OA
ATOM     19  H   UNL d   1      11.590  -3.359  -4.393  0.00  0.00     0.217 HD
ENDBRANCH   7  18
BRANCH  10  20
ATOM     20  O   UNL d   1      14.910  -4.507  -5.185  0.00  0.00    -0.361 OA
ATOM     21  H   UNL d   1      14.771  -4.852  -5.681  0.00  0.00     0.217 HD
ENDBRANCH  10  20
TORSDOF 3
ENDMDL
