MODEL 1
REMARK VINA RESULT:    -7.655      0.000      0.000
REMARK INTER + INTRA:          -7.285
REMARK INTER:                  -9.190
REMARK INTRA:                   1.905
REMARK UNBOUND:                 1.936
REMARK  5 active torsions:
REMARK  status: ('A' for Active; 'I' for Inactive)
REMARK    1  A    between atoms: O_2  and  C_13 
REMARK    2  A    between atoms: O_3  and  C_19 
REMARK    3  A    between atoms: O_5  and  C_17 
REMARK    4  A    between atoms: O_6  and  C_21 
REMARK    5  A    between atoms: C_8  and  C_10 
ROOT
ATOM      1  O   UNL d   1       5.869  -7.549   7.671  0.00  0.00    -0.309 OA
ATOM      2  O   UNL d   1       6.355  -6.674  10.499  0.00  0.00    -0.287 OA
ATOM      3  C   UNL d   1       6.251  -6.302   8.811  0.00  0.00     0.081 A 
ATOM      4  C   UNL d   1       5.811  -8.212   8.417  0.00  0.00     0.090 A 
ATOM      5  C   UNL d   1       6.090  -6.593   7.868  0.00  0.00     0.095 A 
ATOM      6  C   UNL d   1       6.193  -6.965   9.556  0.00  0.00     0.190 A 
ATOM      7  C   UNL d   1       5.973  -7.921   9.359  0.00  0.00     0.094 A 
ATOM      8  C   UNL d   1       6.482  -5.310   9.031  0.00  0.00     0.085 A 
ATOM      9  C   UNL d   1       6.147  -5.914   7.080  0.00  0.00     0.075 A 
ATOM     10  C   UNL d   1       6.376  -4.917   7.278  0.00  0.00     0.071 A 
ATOM     11  C   UNL d   1       6.544  -4.613   8.259  0.00  0.00     0.074 A 
ENDROOT
BRANCH   4  12
ATOM     12  C   UNL d   1       5.591  -9.168   8.220  0.00  0.00     0.001 A 
ATOM     13  C   UNL d   1       4.763  -9.579   8.601  0.00  0.00     0.054 A 
ATOM     14  C   UNL d   1       4.543 -10.534   8.404  0.00  0.00     0.102 A 
ATOM     15  C   UNL d   1       5.151 -11.078   7.826  0.00  0.00     0.099 A 
ATOM     16  C   UNL d   1       5.979 -10.667   7.445  0.00  0.00     0.040 A 
ATOM     17  C   UNL d   1       6.199  -9.712   7.642  0.00  0.00     0.017 A 
BRANCH  14  18
ATOM     18  O   UNL d   1       3.715 -10.945   8.785  0.00  0.00    -0.353 OA
ATOM     19  C   UNL d   1       3.221 -10.484   9.522  0.00  0.00     0.210 C 
ENDBRANCH  14  18
BRANCH  15  20
ATOM     20  O   UNL d   1       4.931 -12.034   7.629  0.00  0.00    -0.358 OA
ATOM     21  H   UNL d   1       4.595 -12.178   7.127  0.00  0.00     0.217 HD
ENDBRANCH  15  20
ENDBRANCH   4  12
BRANCH   8  22
ATOM     22  O   UNL d   1       6.641  -5.030   9.977  0.00  0.00    -0.360 OA
ATOM     23  H   UNL d   1       6.842  -5.443  10.393  0.00  0.00     0.217 HD
ENDBRANCH   8  22
BRANCH  10  24
ATOM     24  O   UNL d   1       6.433  -4.256   6.529  0.00  0.00    -0.361 OA
ATOM     25  H   UNL d   1       6.394  -3.649   6.648  0.00  0.00     0.217 HD
ENDBRANCH  10  24
TORSDOF 5
ENDMDL
MODEL 2
REMARK VINA RESULT:    -7.514     14.858     17.094
REMARK INTER + INTRA:          -7.115
REMARK INTER:                  -9.209
REMARK INTRA:                   2.094
REMARK UNBOUND:                 1.936
REMARK  5 active torsions:
REMARK  status: ('A' for Active; 'I' for Inactive)
REMARK    1  A    between atoms: O_2  and  C_13 
REMARK    2  A    between atoms: O_3  and  C_19 
REMARK    3  A    between atoms: O_5  and  C_17 
REMARK    4  A    between atoms: O_6  and  C_21 
REMARK    5  A    between atoms: C_8  and  C_10 
ROOT
ATOM      1  O   UNL d   1      18.823  -3.921   0.122  0.00  0.00    -0.309 OA
ATOM      2  O   UNL d   1      16.482  -2.470  -1.068  0.00  0.00    -0.287 OA
ATOM      3  C   UNL d   1      17.160  -3.441   0.196  0.00  0.00     0.081 A 
ATOM      4  C   UNL d   1      18.925  -3.433  -0.745  0.00  0.00     0.090 A 
ATOM      5  C   UNL d   1      17.941  -3.924   0.592  0.00  0.00     0.095 A 
ATOM      6  C   UNL d   1      17.263  -2.953  -0.672  0.00  0.00     0.190 A 
ATOM      7  C   UNL d   1      18.145  -2.950  -1.142  0.00  0.00     0.094 A 
ATOM      8  C   UNL d   1      16.236  -3.436   0.674  0.00  0.00     0.085 A 
ATOM      9  C   UNL d   1      17.850  -4.436   1.495  0.00  0.00     0.075 A 
ATOM     10  C   UNL d   1      16.934  -4.444   1.991  0.00  0.00     0.071 A 
ATOM     11  C   UNL d   1      16.122  -3.941   1.578  0.00  0.00     0.074 A 
ENDROOT
BRANCH   4  12
ATOM     12  C   UNL d   1      19.808  -3.430  -1.216  0.00  0.00     0.001 A 
ATOM     13  C   UNL d   1      20.156  -2.584  -1.618  0.00  0.00     0.054 A 
ATOM     14  C   UNL d   1      21.039  -2.580  -2.089  0.00  0.00     0.102 A 
ATOM     15  C   UNL d   1      21.572  -3.423  -2.157  0.00  0.00     0.099 A 
ATOM     16  C   UNL d   1      21.224  -4.269  -1.754  0.00  0.00     0.040 A 
ATOM     17  C   UNL d   1      20.341  -4.273  -1.284  0.00  0.00     0.017 A 
BRANCH  14  18
ATOM     18  O   UNL d   1      21.387  -1.734  -2.491  0.00  0.00    -0.353 OA
ATOM     19  C   UNL d   1      20.752  -1.063  -2.873  0.00  0.00     0.210 C 
ENDBRANCH  14  18
BRANCH  15  20
ATOM     20  O   UNL d   1      22.455  -3.419  -2.627  0.00  0.00    -0.358 OA
ATOM     21  H   UNL d   1      22.520  -3.720  -3.165  0.00  0.00     0.217 HD
ENDBRANCH  15  20
ENDBRANCH   4  12
BRANCH   8  22
ATOM     22  O   UNL d   1      15.462  -2.949   0.268  0.00  0.00    -0.360 OA
ATOM     23  H   UNL d   1      15.058  -3.253  -0.089  0.00  0.00     0.217 HD
ENDBRANCH   8  22
BRANCH  10  24
ATOM     24  O   UNL d   1      16.836  -4.933   2.858  0.00  0.00    -0.361 OA
ATOM     25  H   UNL d   1      17.163  -4.754   3.353  0.00  0.00     0.217 HD
ENDBRANCH  10  24
TORSDOF 5
ENDMDL
MODEL 3
REMARK VINA RESULT:    -7.427     21.009     22.511
REMARK INTER + INTRA:          -7.011
REMARK INTER:                  -8.932
REMARK INTRA:                   1.921
REMARK UNBOUND:                 1.936
REMARK  5 active torsions:
REMARK  status: ('A' for Active; 'I' for Inactive)
REMARK    1  A    between atoms: O_2  and  C_13 
REMARK    2  A    between atoms: O_3  and  C_19 
REMARK    3  A    between atoms: O_5  and  C_17 
REMARK    4  A    between atoms: O_6  and  C_21 
REMARK    5  A    between atoms: C_8  and  C_10 
ROOT
ATOM      1  O   UNL d   1     -10.630   2.927  -3.232  0.00  0.00    -0.309 OA
ATOM      2  O   UNL d   1      -7.898   2.506  -2.064  0.00  0.00    -0.287 OA
ATOM      3  C   UNL d   1      -9.539   3.035  -1.891  0.00  0.00     0.081 A 
ATOM      4  C   UNL d   1      -9.900   2.538  -3.794  0.00  0.00     0.090 A 
ATOM      5  C   UNL d   1     -10.449   3.175  -2.280  0.00  0.00     0.095 A 
ATOM      6  C   UNL d   1      -8.809   2.646  -2.453  0.00  0.00     0.190 A 
ATOM      7  C   UNL d   1      -8.989   2.398  -3.405  0.00  0.00     0.094 A 
ATOM      8  C   UNL d   1      -9.336   3.289  -0.902  0.00  0.00     0.085 A 
ATOM      9  C   UNL d   1     -11.219   3.579  -1.707  0.00  0.00     0.075 A 
ATOM     10  C   UNL d   1     -11.039   3.841  -0.715  0.00  0.00     0.071 A 
ATOM     11  C   UNL d   1     -10.091   3.694  -0.310  0.00  0.00     0.074 A 
ENDROOT
BRANCH   4  12
ATOM     12  C   UNL d   1     -10.080   2.289  -4.746  0.00  0.00     0.001 A 
ATOM     13  C   UNL d   1     -10.218   1.331  -4.995  0.00  0.00     0.054 A 
ATOM     14  C   UNL d   1     -10.398   1.082  -5.946  0.00  0.00     0.102 A 
ATOM     15  C   UNL d   1     -10.442   1.792  -6.649  0.00  0.00     0.099 A 
ATOM     16  C   UNL d   1     -10.304   2.751  -6.400  0.00  0.00     0.040 A 
ATOM     17  C   UNL d   1     -10.124   3.000  -5.448  0.00  0.00     0.017 A 
BRANCH  14  18
ATOM     18  O   UNL d   1     -10.536   0.123  -6.196  0.00  0.00    -0.353 OA
ATOM     19  C   UNL d   1      -9.941  -0.583  -5.812  0.00  0.00     0.210 C 
ENDBRANCH  14  18
BRANCH  15  20
ATOM     20  O   UNL d   1     -10.622   1.544  -7.601  0.00  0.00    -0.358 OA
ATOM     21  H   UNL d   1     -11.156   1.267  -7.753  0.00  0.00     0.217 HD
ENDBRANCH  15  20
ENDBRANCH   4  12
BRANCH   8  22
ATOM     22  O   UNL d   1      -8.422   3.144  -0.523  0.00  0.00    -0.360 OA
ATOM     23  H   UNL d   1      -7.946   3.486  -0.724  0.00  0.00     0.217 HD
ENDBRANCH   8  22
BRANCH  10  24
ATOM     24  O   UNL d   1     -11.772   4.229  -0.156  0.00  0.00    -0.361 OA
ATOM     25  H   UNL d   1     -11.802   4.842  -0.068  0.00  0.00     0.217 HD
ENDBRANCH  10  24
TORSDOF 5
ENDMDL
MODEL 4
REMARK VINA RESULT:    -7.349     21.259     22.771
REMARK INTER + INTRA:          -6.917
REMARK INTER:                  -8.770
REMARK INTRA:                   1.853
REMARK UNBOUND:                 1.936
REMARK  5 active torsions:
REMARK  status: ('A' for Active; 'I' for Inactive)
REMARK    1  A    between atoms: O_2  and  C_13 
REMARK    2  A    between atoms: O_3  and  C_19 
REMARK    3  A    between atoms: O_5  and  C_17 
REMARK    4  A    between atoms: O_6  and  C_21 
REMARK    5  A    between atoms: C_8  and  C_10 
ROOT
ATOM      1  O   UNL d   1       0.064  13.519   1.799  0.00  0.00    -0.309 OA
ATOM      2  O   UNL d   1      -1.108  10.964   0.752  0.00  0.00    -0.287 OA
ATOM      3  C   UNL d   1      -0.920  12.682   0.645  0.00  0.00     0.081 A 
ATOM      4  C   UNL d   1       0.266  12.652   2.255  0.00  0.00     0.090 A 
ATOM      5  C   UNL d   1      -0.529  13.534   0.994  0.00  0.00     0.095 A 
ATOM      6  C   UNL d   1      -0.718  11.816   1.101  0.00  0.00     0.190 A 
ATOM      7  C   UNL d   1      -0.125  11.801   1.906  0.00  0.00     0.094 A 
ATOM      8  C   UNL d   1      -1.539  12.682  -0.192  0.00  0.00     0.085 A 
ATOM      9  C   UNL d   1      -0.731  14.445   0.530  0.00  0.00     0.075 A 
ATOM     10  C   UNL d   1      -1.347  14.468  -0.309  0.00  0.00     0.071 A 
ATOM     11  C   UNL d   1      -1.754  13.581  -0.672  0.00  0.00     0.074 A 
ENDROOT
BRANCH   4  12
ATOM     12  C   UNL d   1       0.859  12.638   3.060  0.00  0.00     0.001 A 
ATOM     13  C   UNL d   1       1.842  12.485   2.955  0.00  0.00     0.054 A 
ATOM     14  C   UNL d   1       2.435  12.470   3.760  0.00  0.00     0.102 A 
ATOM     15  C   UNL d   1       2.045  12.608   4.670  0.00  0.00     0.099 A 
ATOM     16  C   UNL d   1       1.062  12.760   4.776  0.00  0.00     0.040 A 
ATOM     17  C   UNL d   1       0.469  12.775   3.971  0.00  0.00     0.017 A 
BRANCH  14  18
ATOM     18  O   UNL d   1       3.417  12.318   3.654  0.00  0.00    -0.353 OA
ATOM     19  C   UNL d   1       3.878  12.592   2.810  0.00  0.00     0.210 C 
ENDBRANCH  14  18
BRANCH  15  20
ATOM     20  O   UNL d   1       2.638  12.593   5.475  0.00  0.00    -0.358 OA
ATOM     21  H   UNL d   1       2.802  13.125   5.749  0.00  0.00     0.217 HD
ENDBRANCH  15  20
ENDBRANCH   4  12
BRANCH   8  22
ATOM     22  O   UNL d   1      -1.924  11.824  -0.532  0.00  0.00    -0.360 OA
ATOM     23  H   UNL d   1      -1.587  11.459  -0.902  0.00  0.00     0.217 HD
ENDBRANCH   8  22
BRANCH  10  24
ATOM     24  O   UNL d   1      -1.547  15.337  -0.762  0.00  0.00    -0.361 OA
ATOM     25  H   UNL d   1      -2.085  15.414  -1.062  0.00  0.00     0.217 HD
ENDBRANCH  10  24
TORSDOF 5
ENDMDL
MODEL 5
REMARK VINA RESULT:    -7.341      1.042      5.112
REMARK INTER + INTRA:          -6.906
REMARK INTER:                  -8.882
REMARK INTRA:                   1.975
REMARK UNBOUND:                 1.936
REMARK  5 active torsions:
REMARK  status: ('A' for Active; 'I' for Inactive)
REMARK    1  A    between atoms: O_2  and  C_13 
REMARK    2  A    between atoms: O_3  and  C_19 
REMARK    3  A    between atoms: O_5  and  C_17 
REMARK    4  A    between atoms: O_6  and  C_21 
REMARK    5  A    between atoms: C_8  and  C_10 
ROOT
ATOM      1  O   UNL d   1       6.137  -8.052   8.178  0.00  0.00    -0.309 OA
ATOM      2  O   UNL d   1       4.118  -8.869  10.241  0.00  0.00    -0.287 OA
ATOM      3  C   UNL d   1       5.106  -9.258   8.873  0.00  0.00     0.081 A 
ATOM      4  C   UNL d   1       5.822  -7.391   8.858  0.00  0.00     0.090 A 
ATOM      5  C   UNL d   1       5.779  -8.986   8.185  0.00  0.00     0.095 A 
ATOM      6  C   UNL d   1       4.791  -8.597   9.553  0.00  0.00     0.190 A 
ATOM      7  C   UNL d   1       5.149  -7.663   9.546  0.00  0.00     0.094 A 
ATOM      8  C   UNL d   1       4.725 -10.227   8.892  0.00  0.00     0.085 A 
ATOM      9  C   UNL d   1       6.117  -9.664   7.469  0.00  0.00     0.075 A 
ATOM     10  C   UNL d   1       5.749 -10.638   7.471  0.00  0.00     0.071 A 
ATOM     11  C   UNL d   1       5.048 -10.922   8.186  0.00  0.00     0.074 A 
ENDROOT
BRANCH   4  12
ATOM     12  C   UNL d   1       6.180  -6.457   8.851  0.00  0.00     0.001 A 
ATOM     13  C   UNL d   1       6.157  -5.919   8.009  0.00  0.00     0.054 A 
ATOM     14  C   UNL d   1       6.515  -4.986   8.002  0.00  0.00     0.102 A 
ATOM     15  C   UNL d   1       6.896  -4.590   8.837  0.00  0.00     0.099 A 
ATOM     16  C   UNL d   1       6.919  -5.128   9.680  0.00  0.00     0.040 A 
ATOM     17  C   UNL d   1       6.561  -6.062   9.687  0.00  0.00     0.017 A 
BRANCH  14  18
ATOM     18  O   UNL d   1       6.492  -4.448   7.159  0.00  0.00    -0.353 OA
ATOM     19  C   UNL d   1       6.125  -4.849   6.320  0.00  0.00     0.210 C 
ENDBRANCH  14  18
BRANCH  15  20
ATOM     20  O   UNL d   1       7.254  -3.656   8.830  0.00  0.00    -0.358 OA
ATOM     21  H   UNL d   1       7.866  -3.559   8.819  0.00  0.00     0.217 HD
ENDBRANCH  15  20
ENDBRANCH   4  12
BRANCH   8  22
ATOM     22  O   UNL d   1       4.052 -10.488   9.585  0.00  0.00    -0.360 OA
ATOM     23  H   UNL d   1       3.506 -10.724   9.412  0.00  0.00     0.217 HD
ENDBRANCH   8  22
BRANCH  10  24
ATOM     24  O   UNL d   1       6.067 -11.297   6.788  0.00  0.00    -0.361 OA
ATOM     25  H   UNL d   1       6.550 -11.158   6.426  0.00  0.00     0.217 HD
ENDBRANCH  10  24
TORSDOF 5
ENDMDL
