MODEL 1
REMARK VINA RESULT:    -8.684      0.000      0.000
REMARK INTER + INTRA:          -8.364
REMARK INTER:                  -9.618
REMARK INTRA:                   1.255
REMARK UNBOUND:                 1.336
REMARK  3 active torsions:
REMARK  status: ('A' for Active; 'I' for Inactive)
REMARK    1  A    between atoms: O_2  and  C_10 
REMARK    2  A    between atoms: O_4  and  C_13 
REMARK    3  A    between atoms: C_7  and  C_9 
ROOT
ATOM      1  O   UNL d   1      18.798  -3.090  -0.462  0.00  0.00    -0.309 OA
ATOM      2  O   UNL d   1      17.643  -2.103  -3.049  0.00  0.00    -0.287 OA
ATOM      3  C   UNL d   1      19.014  -2.377  -2.025  0.00  0.00     0.081 A 
ATOM      4  C   UNL d   1      19.399  -2.706  -1.163  0.00  0.00     0.095 A 
ATOM      5  C   UNL d   1      17.813  -3.146  -0.623  0.00  0.00     0.090 A 
ATOM      6  C   UNL d   1      18.028  -2.432  -2.186  0.00  0.00     0.190 A 
ATOM      7  C   UNL d   1      19.626  -1.974  -2.765  0.00  0.00     0.085 A 
ATOM      8  C   UNL d   1      17.428  -2.817  -1.485  0.00  0.00     0.094 A 
ATOM      9  C   UNL d   1      20.423  -2.655  -0.981  0.00  0.00     0.075 A 
ATOM     10  C   UNL d   1      21.055  -2.256  -1.706  0.00  0.00     0.071 A 
ATOM     11  C   UNL d   1      20.654  -1.914  -2.604  0.00  0.00     0.074 A 
ENDROOT
BRANCH   5  12
ATOM     12  C   UNL d   1      17.212  -3.530   0.078  0.00  0.00    -0.002 A 
ATOM     13  C   UNL d   1      16.314  -3.123   0.246  0.00  0.00     0.014 A 
ATOM     14  C   UNL d   1      15.714  -3.507   0.947  0.00  0.00     0.001 A 
ATOM     15  C   UNL d   1      16.012  -4.299   1.481  0.00  0.00     0.000 A 
ATOM     16  C   UNL d   1      16.910  -4.705   1.314  0.00  0.00     0.001 A 
ATOM     17  C   UNL d   1      17.510  -4.321   0.613  0.00  0.00     0.014 A 
ENDBRANCH   5  12
BRANCH   7  18
ATOM     18  O   UNL d   1      19.230  -1.649  -3.623  0.00  0.00    -0.360 OA
ATOM     19  H   UNL d   1      19.206  -2.024  -4.115  0.00  0.00     0.217 HD
ENDBRANCH   7  18
BRANCH  10  20
ATOM     20  O   UNL d   1      22.040  -2.203  -1.541  0.00  0.00    -0.361 OA
ATOM     21  H   UNL d   1      22.253  -1.937  -1.024  0.00  0.00     0.217 HD
ENDBRANCH  10  20
TORSDOF 3
ENDMDL
MODEL 2
REMARK VINA RESULT:    -8.456      0.842      2.133
REMARK INTER + INTRA:          -8.109
REMARK INTER:                  -9.499
REMARK INTRA:                   1.390
REMARK UNBOUND:                 1.336
REMARK  3 active torsions:
REMARK  status: ('A' for Active; 'I' for Inactive)
REMARK    1  A    between atoms: O_2  and  C_10 
REMARK    2  A    between atoms: O_4  and  C_13 
REMARK    3  A    between atoms: C_7  and  C_9 
ROOT
ATOM      1  O   UNL d   1      18.208  -2.822  -1.086  0.00  0.00    -0.309 OA
ATOM      2  O   UNL d   1      20.842  -3.822  -0.055  0.00  0.00    -0.287 OA
ATOM      3  C   UNL d   1      19.931  -2.934  -1.229  0.00  0.00     0.081 A 
ATOM      4  C   UNL d   1      19.053  -2.600  -1.573  0.00  0.00     0.095 A 
ATOM      5  C   UNL d   1      18.242  -3.377  -0.255  0.00  0.00     0.090 A 
ATOM      6  C   UNL d   1      19.964  -3.489  -0.398  0.00  0.00     0.190 A 
ATOM      7  C   UNL d   1      20.818  -2.711  -1.726  0.00  0.00     0.085 A 
ATOM      8  C   UNL d   1      19.120  -3.711   0.089  0.00  0.00     0.094 A 
ATOM      9  C   UNL d   1      19.002  -2.021  -2.438  0.00  0.00     0.075 A 
ATOM     10  C   UNL d   1      19.877  -1.786  -2.951  0.00  0.00     0.071 A 
ATOM     11  C   UNL d   1      20.791  -2.133  -2.593  0.00  0.00     0.074 A 
ENDROOT
BRANCH   5  12
ATOM     12  C   UNL d   1      17.397  -3.599   0.233  0.00  0.00    -0.002 A 
ATOM     13  C   UNL d   1      17.374  -4.374   0.865  0.00  0.00     0.014 A 
ATOM     14  C   UNL d   1      16.529  -4.595   1.352  0.00  0.00     0.001 A 
ATOM     15  C   UNL d   1      15.708  -4.043   1.207  0.00  0.00     0.000 A 
ATOM     16  C   UNL d   1      15.732  -3.269   0.575  0.00  0.00     0.001 A 
ATOM     17  C   UNL d   1      16.576  -3.047   0.088  0.00  0.00     0.014 A 
ENDBRANCH   5  12
BRANCH   7  18
ATOM     18  O   UNL d   1      21.691  -3.049  -1.373  0.00  0.00    -0.360 OA
ATOM     19  H   UNL d   1      22.200  -2.699  -1.419  0.00  0.00     0.217 HD
ENDBRANCH   7  18
BRANCH  10  20
ATOM     20  O   UNL d   1      19.840  -1.230  -3.782  0.00  0.00    -0.361 OA
ATOM     21  H   UNL d   1      19.300  -1.152  -4.077  0.00  0.00     0.217 HD
ENDBRANCH  10  20
TORSDOF 3
ENDMDL
MODEL 3
REMARK VINA RESULT:    -8.126      1.423      2.654
REMARK INTER + INTRA:          -7.740
REMARK INTER:                  -8.951
REMARK INTRA:                   1.211
REMARK UNBOUND:                 1.336
REMARK  3 active torsions:
REMARK  status: ('A' for Active; 'I' for Inactive)
REMARK    1  A    between atoms: O_2  and  C_10 
REMARK    2  A    between atoms: O_4  and  C_13 
REMARK    3  A    between atoms: C_7  and  C_9 
ROOT
ATOM      1  O   UNL d   1      19.762  -2.296  -1.684  0.00  0.00    -0.309 OA
ATOM      2  O   UNL d   1      21.826  -4.466  -1.864  0.00  0.00    -0.287 OA
ATOM      3  C   UNL d   1      21.300  -2.860  -2.245  0.00  0.00     0.081 A 
ATOM      4  C   UNL d   1      20.612  -2.137  -2.185  0.00  0.00     0.095 A 
ATOM      5  C   UNL d   1      19.599  -3.179  -1.243  0.00  0.00     0.090 A 
ATOM      6  C   UNL d   1      21.138  -3.743  -1.804  0.00  0.00     0.190 A 
ATOM      7  C   UNL d   1      22.190  -2.709  -2.764  0.00  0.00     0.085 A 
ATOM      8  C   UNL d   1      20.287  -3.902  -1.303  0.00  0.00     0.094 A 
ATOM      9  C   UNL d   1      20.767  -1.212  -2.640  0.00  0.00     0.075 A 
ATOM     10  C   UNL d   1      21.650  -1.039  -3.163  0.00  0.00     0.071 A 
ATOM     11  C   UNL d   1      22.367  -1.792  -3.226  0.00  0.00     0.074 A 
ENDROOT
BRANCH   5  12
ATOM     12  C   UNL d   1      18.749  -3.338  -0.741  0.00  0.00    -0.002 A 
ATOM     13  C   UNL d   1      18.772  -3.779   0.156  0.00  0.00     0.014 A 
ATOM     14  C   UNL d   1      17.922  -3.938   0.657  0.00  0.00     0.001 A 
ATOM     15  C   UNL d   1      17.048  -3.657   0.261  0.00  0.00     0.000 A 
ATOM     16  C   UNL d   1      17.024  -3.216  -0.636  0.00  0.00     0.001 A 
ATOM     17  C   UNL d   1      17.875  -3.057  -1.138  0.00  0.00     0.014 A 
ENDBRANCH   5  12
BRANCH   7  18
ATOM     18  O   UNL d   1      22.871  -3.439  -2.817  0.00  0.00    -0.360 OA
ATOM     19  H   UNL d   1      23.459  -3.305  -2.962  0.00  0.00     0.217 HD
ENDBRANCH   7  18
BRANCH  10  20
ATOM     20  O   UNL d   1      21.809  -0.155  -3.603  0.00  0.00    -0.361 OA
ATOM     21  H   UNL d   1      21.688   0.370  -3.296  0.00  0.00     0.217 HD
ENDBRANCH  10  20
TORSDOF 3
ENDMDL
MODEL 4
REMARK VINA RESULT:    -8.046     14.865     16.515
REMARK INTER + INTRA:          -7.651
REMARK INTER:                  -8.731
REMARK INTRA:                   1.080
REMARK UNBOUND:                 1.336
REMARK  3 active torsions:
REMARK  status: ('A' for Active; 'I' for Inactive)
REMARK    1  A    between atoms: O_2  and  C_10 
REMARK    2  A    between atoms: O_4  and  C_13 
REMARK    3  A    between atoms: C_7  and  C_9 
ROOT
ATOM      1  O   UNL d   1       5.868  -7.547   7.636  0.00  0.00    -0.309 OA
ATOM      2  O   UNL d   1       6.359  -6.675  10.464  0.00  0.00    -0.287 OA
ATOM      3  C   UNL d   1       6.250  -6.301   8.776  0.00  0.00     0.081 A 
ATOM      4  C   UNL d   1       6.087  -6.591   7.834  0.00  0.00     0.095 A 
ATOM      5  C   UNL d   1       5.813  -8.212   8.381  0.00  0.00     0.090 A 
ATOM      6  C   UNL d   1       6.195  -6.965   9.521  0.00  0.00     0.190 A 
ATOM      7  C   UNL d   1       6.479  -5.309   8.997  0.00  0.00     0.085 A 
ATOM      8  C   UNL d   1       5.976  -7.921   9.324  0.00  0.00     0.094 A 
ATOM      9  C   UNL d   1       6.141  -5.911   7.047  0.00  0.00     0.075 A 
ATOM     10  C   UNL d   1       6.368  -4.914   7.245  0.00  0.00     0.071 A 
ATOM     11  C   UNL d   1       6.539  -4.611   8.226  0.00  0.00     0.074 A 
ENDROOT
BRANCH   5  12
ATOM     12  C   UNL d   1       5.594  -9.167   8.183  0.00  0.00    -0.002 A 
ATOM     13  C   UNL d   1       6.219  -9.719   7.631  0.00  0.00     0.014 A 
ATOM     14  C   UNL d   1       6.000 -10.675   7.433  0.00  0.00     0.001 A 
ATOM     15  C   UNL d   1       5.156 -11.078   7.788  0.00  0.00     0.000 A 
ATOM     16  C   UNL d   1       4.531 -10.526   8.340  0.00  0.00     0.001 A 
ATOM     17  C   UNL d   1       4.750  -9.570   8.538  0.00  0.00     0.014 A 
ENDBRANCH   5  12
BRANCH   7  18
ATOM     18  O   UNL d   1       6.641  -5.029   9.944  0.00  0.00    -0.360 OA
ATOM     19  H   UNL d   1       6.240  -4.652  10.228  0.00  0.00     0.217 HD
ENDBRANCH   7  18
BRANCH  10  20
ATOM     20  O   UNL d   1       6.423  -4.252   6.497  0.00  0.00    -0.361 OA
ATOM     21  H   UNL d   1       6.722  -3.715   6.579  0.00  0.00     0.217 HD
ENDBRANCH  10  20
TORSDOF 3
ENDMDL
MODEL 5
REMARK VINA RESULT:    -7.876      1.490      2.397
REMARK INTER + INTRA:          -7.461
REMARK INTER:                  -8.746
REMARK INTRA:                   1.286
REMARK UNBOUND:                 1.336
REMARK  3 active torsions:
REMARK  status: ('A' for Active; 'I' for Inactive)
REMARK    1  A    between atoms: O_2  and  C_10 
REMARK    2  A    between atoms: O_4  and  C_13 
REMARK    3  A    between atoms: C_7  and  C_9 
ROOT
ATOM      1  O   UNL d   1      20.712  -3.169  -1.696  0.00  0.00    -0.309 OA
ATOM      2  O   UNL d   1      20.037  -0.913  -3.555  0.00  0.00    -0.287 OA
ATOM      3  C   UNL d   1      21.181  -2.059  -2.940  0.00  0.00     0.081 A 
ATOM      4  C   UNL d   1      21.406  -2.811  -2.320  0.00  0.00     0.095 A 
ATOM      5  C   UNL d   1      19.793  -2.775  -1.691  0.00  0.00     0.090 A 
ATOM      6  C   UNL d   1      20.262  -1.665  -2.935  0.00  0.00     0.190 A 
ATOM      7  C   UNL d   1      21.894  -1.676  -3.595  0.00  0.00     0.085 A 
ATOM      8  C   UNL d   1      19.568  -2.023  -2.311  0.00  0.00     0.094 A 
ATOM      9  C   UNL d   1      22.359  -3.232  -2.313  0.00  0.00     0.075 A 
ATOM     10  C   UNL d   1      23.088  -2.864  -2.960  0.00  0.00     0.071 A 
ATOM     11  C   UNL d   1      22.854  -2.081  -3.605  0.00  0.00     0.074 A 
ENDROOT
BRANCH   5  12
ATOM     12  C   UNL d   1      19.098  -3.133  -1.067  0.00  0.00    -0.002 A 
ATOM     13  C   UNL d   1      18.139  -3.162  -1.349  0.00  0.00     0.014 A 
ATOM     14  C   UNL d   1      17.445  -3.520  -0.725  0.00  0.00     0.001 A 
ATOM     15  C   UNL d   1      17.710  -3.850   0.181  0.00  0.00     0.000 A 
ATOM     16  C   UNL d   1      18.669  -3.822   0.463  0.00  0.00     0.001 A 
ATOM     17  C   UNL d   1      19.363  -3.464  -0.161  0.00  0.00     0.014 A 
ENDBRANCH   5  12
BRANCH   7  18
ATOM     18  O   UNL d   1      21.658  -0.924  -4.210  0.00  0.00    -0.360 OA
ATOM     19  H   UNL d   1      21.932  -0.372  -4.144  0.00  0.00     0.217 HD
ENDBRANCH   7  18
BRANCH  10  20
ATOM     20  O   UNL d   1      24.006  -3.261  -2.962  0.00  0.00    -0.361 OA
ATOM     21  H   UNL d   1      24.459  -2.992  -3.288  0.00  0.00     0.217 HD
ENDBRANCH  10  20
TORSDOF 3
ENDMDL
