MODEL 1
REMARK VINA RESULT:    -7.814      0.000      0.000
REMARK INTER + INTRA:           1.900
REMARK INTER:                 -10.659
REMARK INTRA:                  12.559
REMARK UNBOUND:                12.456
REMARK  9 active torsions:
REMARK  status: ('A' for Active; 'I' for Inactive)
REMARK    1  A    between atoms: C_15  and  O_2 
REMARK    2  A    between atoms: O_2  and  C_17 
REMARK    3  A    between atoms: C_11  and  O_3 
REMARK    4  A    between atoms: C_12  and  O_4 
REMARK    5  A    between atoms: C_13  and  O_5 
REMARK    6  A    between atoms: O_8  and  C_23 
REMARK    7  A    between atoms: O_9  and  C_28 
REMARK    8  A    between atoms: O_10  and  C_31 
REMARK    9  A    between atoms: C_18  and  C_22 
ROOT
ATOM      1  O   UNL d   1       7.541   0.317   5.694  0.00  0.00    -0.306 OA
ATOM      2  O   UNL d   1       9.697   1.267   7.552  0.00  0.00    -0.284 OA
ATOM      3  C   UNL d   1       8.083   0.692   7.296  0.00  0.00     0.157 A 
ATOM      4  C   UNL d   1       7.364   0.375   6.677  0.00  0.00     0.123 A 
ATOM      5  C   UNL d   1       8.978   0.950   6.933  0.00  0.00     0.223 A 
ATOM      6  C   UNL d   1       9.154   0.892   5.950  0.00  0.00     0.084 A 
ATOM      7  C   UNL d   1       8.436   0.576   5.331  0.00  0.00     0.096 A 
ATOM      8  C   UNL d   1      10.092   1.165   5.586  0.00  0.00     0.085 A 
ATOM      9  C   UNL d   1       8.605   0.510   4.305  0.00  0.00     0.075 A 
ATOM     10  C   UNL d   1      10.283   1.107   4.564  0.00  0.00     0.074 A 
ATOM     11  C   UNL d   1       9.535   0.777   3.918  0.00  0.00     0.071 A 
ENDROOT
BRANCH   3  12
ATOM     12  O   UNL d   1       7.906   0.750   8.279  0.00  0.00    -0.311 OA
BRANCH  12  13
ATOM     13  C   UNL d   1       7.829   1.643   8.721  0.00  0.00     0.298 A 
ATOM     14  O   UNL d   1       7.734   2.469   8.165  0.00  0.00    -0.351 OA
ATOM     15  C   UNL d   1       7.656   3.363   8.607  0.00  0.00     0.152 A 
ATOM     16  C   UNL d   1       7.673   3.430   9.605  0.00  0.00     0.178 A 
ATOM     17  C   UNL d   1       7.562   4.189   8.052  0.00  0.00     0.042 C 
ATOM     18  C   UNL d   1       7.767   2.604  10.160  0.00  0.00     0.183 A 
ATOM     19  C   UNL d   1       7.845   1.711   9.718  0.00  0.00     0.205 A 
BRANCH  16  20
ATOM     20  O   UNL d   1       7.595   4.324  10.047  0.00  0.00    -0.390 OA
ATOM     21  H   UNL d   1       7.047   4.516  10.263  0.00  0.00     0.210 HD
ENDBRANCH  16  20
BRANCH  18  22
ATOM     22  O   UNL d   1       7.784   2.672  11.158  0.00  0.00    -0.390 OA
ATOM     23  H   UNL d   1       7.298   2.910  11.461  0.00  0.00     0.210 HD
ENDBRANCH  18  22
BRANCH  19  24
ATOM     24  O   UNL d   1       7.940   0.884  10.274  0.00  0.00    -0.388 OA
ATOM     25  H   UNL d   1       8.381   0.470  10.140  0.00  0.00     0.210 HD
ENDBRANCH  19  24
ENDBRANCH  12  13
ENDBRANCH   3  12
BRANCH   4  26
ATOM     26  C   UNL d   1       6.469   0.116   7.040  0.00  0.00     0.001 A 
ATOM     27  C   UNL d   1       5.700   0.752   6.974  0.00  0.00     0.017 A 
ATOM     28  C   UNL d   1       4.805   0.493   7.337  0.00  0.00     0.037 A 
ATOM     29  C   UNL d   1       4.679  -0.401   7.767  0.00  0.00     0.065 A 
ATOM     30  C   UNL d   1       5.449  -1.036   7.833  0.00  0.00     0.037 A 
ATOM     31  C   UNL d   1       6.344  -0.778   7.470  0.00  0.00     0.017 A 
BRANCH  29  32
ATOM     32  O   UNL d   1       3.784  -0.659   8.130  0.00  0.00    -0.361 OA
ATOM     33  H   UNL d   1       3.720  -1.188   8.448  0.00  0.00     0.217 HD
ENDBRANCH  29  32
ENDBRANCH   4  26
BRANCH   8  34
ATOM     34  O   UNL d   1      10.803   1.480   6.214  0.00  0.00    -0.360 OA
ATOM     35  H   UNL d   1      11.164   1.068   6.507  0.00  0.00     0.217 HD
ENDBRANCH   8  34
BRANCH  11  36
ATOM     36  O   UNL d   1       9.707   0.718   2.935  0.00  0.00    -0.361 OA
ATOM     37  H   UNL d   1      10.202   1.000   2.690  0.00  0.00     0.217 HD
ENDBRANCH  11  36
TORSDOF 9
ENDMDL
MODEL 2
REMARK VINA RESULT:    -7.527      1.101      3.900
REMARK INTER + INTRA:           2.288
REMARK INTER:                 -10.146
REMARK INTRA:                  12.433
REMARK UNBOUND:                12.456
REMARK  9 active torsions:
REMARK  status: ('A' for Active; 'I' for Inactive)
REMARK    1  A    between atoms: C_15  and  O_2 
REMARK    2  A    between atoms: O_2  and  C_17 
REMARK    3  A    between atoms: C_11  and  O_3 
REMARK    4  A    between atoms: C_12  and  O_4 
REMARK    5  A    between atoms: C_13  and  O_5 
REMARK    6  A    between atoms: O_8  and  C_23 
REMARK    7  A    between atoms: O_9  and  C_28 
REMARK    8  A    between atoms: O_10  and  C_31 
REMARK    9  A    between atoms: C_18  and  C_22 
ROOT
ATOM      1  O   UNL d   1       8.925   1.427   6.459  0.00  0.00    -0.306 OA
ATOM      2  O   UNL d   1       6.571  -0.058   5.340  0.00  0.00    -0.284 OA
ATOM      3  C   UNL d   1       7.257   0.972   6.552  0.00  0.00     0.157 A 
ATOM      4  C   UNL d   1       8.042   1.466   6.925  0.00  0.00     0.123 A 
ATOM      5  C   UNL d   1       7.356   0.437   5.713  0.00  0.00     0.223 A 
ATOM      6  C   UNL d   1       8.240   0.397   5.247  0.00  0.00     0.084 A 
ATOM      7  C   UNL d   1       9.024   0.892   5.620  0.00  0.00     0.096 A 
ATOM      8  C   UNL d   1       8.327  -0.164   4.373  0.00  0.00     0.085 A 
ATOM      9  C   UNL d   1       9.952   0.860   5.145  0.00  0.00     0.075 A 
ATOM     10  C   UNL d   1       9.245  -0.210   3.882  0.00  0.00     0.074 A 
ATOM     11  C   UNL d   1      10.063   0.305   4.271  0.00  0.00     0.071 A 
ENDROOT
BRANCH   3  12
ATOM     12  O   UNL d   1       6.373   1.011   7.018  0.00  0.00    -0.311 OA
BRANCH  12  13
ATOM     13  C   UNL d   1       6.002   0.193   7.457  0.00  0.00     0.298 A 
ATOM     14  O   UNL d   1       6.619  -0.523   7.783  0.00  0.00    -0.351 OA
ATOM     15  C   UNL d   1       6.248  -1.341   8.222  0.00  0.00     0.152 A 
ATOM     16  C   UNL d   1       5.260  -1.443   8.335  0.00  0.00     0.178 A 
ATOM     17  C   UNL d   1       6.865  -2.057   8.548  0.00  0.00     0.042 C 
ATOM     18  C   UNL d   1       4.643  -0.727   8.009  0.00  0.00     0.183 A 
ATOM     19  C   UNL d   1       5.014   0.091   7.570  0.00  0.00     0.205 A 
BRANCH  16  20
ATOM     20  O   UNL d   1       4.889  -2.262   8.774  0.00  0.00    -0.390 OA
ATOM     21  H   UNL d   1       4.805  -2.780   8.444  0.00  0.00     0.210 HD
ENDBRANCH  16  20
BRANCH  18  22
ATOM     22  O   UNL d   1       3.654  -0.830   8.123  0.00  0.00    -0.390 OA
ATOM     23  H   UNL d   1       3.370  -0.575   8.611  0.00  0.00     0.210 HD
ENDBRANCH  18  22
BRANCH  19  24
ATOM     24  O   UNL d   1       4.396   0.807   7.245  0.00  0.00    -0.388 OA
ATOM     25  H   UNL d   1       3.787   0.761   7.347  0.00  0.00     0.210 HD
ENDBRANCH  19  24
ENDBRANCH  12  13
ENDBRANCH   3  12
BRANCH   4  26
ATOM     26  C   UNL d   1       7.943   2.001   7.764  0.00  0.00     0.001 A 
ATOM     27  C   UNL d   1       8.307   1.650   8.627  0.00  0.00     0.017 A 
ATOM     28  C   UNL d   1       8.208   2.184   9.466  0.00  0.00     0.037 A 
ATOM     29  C   UNL d   1       7.744   3.070   9.443  0.00  0.00     0.065 A 
ATOM     30  C   UNL d   1       7.380   3.422   8.580  0.00  0.00     0.037 A 
ATOM     31  C   UNL d   1       7.479   2.887   7.741  0.00  0.00     0.017 A 
BRANCH  29  32
ATOM     32  O   UNL d   1       7.645   3.605  10.282  0.00  0.00    -0.361 OA
ATOM     33  H   UNL d   1       7.988   4.115  10.367  0.00  0.00     0.217 HD
ENDBRANCH  29  32
ENDBRANCH   4  26
BRANCH   8  34
ATOM     34  O   UNL d   1       7.536  -0.655   4.009  0.00  0.00    -0.360 OA
ATOM     35  H   UNL d   1       7.389  -1.215   4.232  0.00  0.00     0.217 HD
ENDBRANCH   8  34
BRANCH  11  36
ATOM     36  O   UNL d   1      10.948   0.268   3.807  0.00  0.00    -0.361 OA
ATOM     37  H   UNL d   1      10.974   0.161   3.197  0.00  0.00     0.217 HD
ENDBRANCH  11  36
TORSDOF 9
ENDMDL
MODEL 3
REMARK VINA RESULT:    -7.495      1.393      3.632
REMARK INTER + INTRA:           2.332
REMARK INTER:                 -10.168
REMARK INTRA:                  12.499
REMARK UNBOUND:                12.456
REMARK  9 active torsions:
REMARK  status: ('A' for Active; 'I' for Inactive)
REMARK    1  A    between atoms: C_15  and  O_2 
REMARK    2  A    between atoms: O_2  and  C_17 
REMARK    3  A    between atoms: C_11  and  O_3 
REMARK    4  A    between atoms: C_12  and  O_4 
REMARK    5  A    between atoms: C_13  and  O_5 
REMARK    6  A    between atoms: O_8  and  C_23 
REMARK    7  A    between atoms: O_9  and  C_28 
REMARK    8  A    between atoms: O_10  and  C_31 
REMARK    9  A    between atoms: C_18  and  C_22 
ROOT
ATOM      1  O   UNL d   1       9.332   2.721   7.417  0.00  0.00    -0.306 OA
ATOM      2  O   UNL d   1       7.979   0.548   5.853  0.00  0.00    -0.284 OA
ATOM      3  C   UNL d   1       8.267   1.357   7.357  0.00  0.00     0.157 A 
ATOM      4  C   UNL d   1       8.718   2.081   7.879  0.00  0.00     0.123 A 
ATOM      5  C   UNL d   1       8.430   1.273   6.374  0.00  0.00     0.223 A 
ATOM      6  C   UNL d   1       9.044   1.913   5.913  0.00  0.00     0.084 A 
ATOM      7  C   UNL d   1       9.495   2.637   6.434  0.00  0.00     0.096 A 
ATOM      8  C   UNL d   1       9.204   1.813   4.888  0.00  0.00     0.085 A 
ATOM      9  C   UNL d   1      10.138   3.312   5.967  0.00  0.00     0.075 A 
ATOM     10  C   UNL d   1       9.843   2.476   4.400  0.00  0.00     0.074 A 
ATOM     11  C   UNL d   1      10.313   3.230   4.943  0.00  0.00     0.071 A 
ENDROOT
BRANCH   3  12
ATOM     12  O   UNL d   1       7.653   0.717   7.819  0.00  0.00    -0.311 OA
BRANCH  12  13
ATOM     13  C   UNL d   1       6.665   0.781   7.677  0.00  0.00     0.298 A 
ATOM     14  O   UNL d   1       6.258   1.644   7.379  0.00  0.00    -0.351 OA
ATOM     15  C   UNL d   1       5.270   1.708   7.237  0.00  0.00     0.152 A 
ATOM     16  C   UNL d   1       4.690   0.908   7.392  0.00  0.00     0.178 A 
ATOM     17  C   UNL d   1       4.863   2.571   6.940  0.00  0.00     0.042 C 
ATOM     18  C   UNL d   1       5.098   0.045   7.689  0.00  0.00     0.183 A 
ATOM     19  C   UNL d   1       6.085  -0.019   7.831  0.00  0.00     0.205 A 
BRANCH  16  20
ATOM     20  O   UNL d   1       3.702   0.972   7.250  0.00  0.00    -0.390 OA
ATOM     21  H   UNL d   1       3.356   1.318   7.630  0.00  0.00     0.210 HD
ENDBRANCH  16  20
BRANCH  18  22
ATOM     22  O   UNL d   1       4.517  -0.755   7.844  0.00  0.00    -0.390 OA
ATOM     23  H   UNL d   1       4.343  -0.905   8.420  0.00  0.00     0.210 HD
ENDBRANCH  18  22
BRANCH  19  24
ATOM     24  O   UNL d   1       6.493  -0.883   8.129  0.00  0.00    -0.388 OA
ATOM     25  H   UNL d   1       6.412  -1.079   8.711  0.00  0.00     0.210 HD
ENDBRANCH  19  24
ENDBRANCH  12  13
ENDBRANCH   3  12
BRANCH   4  26
ATOM     26  C   UNL d   1       8.555   2.165   8.862  0.00  0.00     0.001 A 
ATOM     27  C   UNL d   1       8.895   1.463   9.487  0.00  0.00     0.017 A 
ATOM     28  C   UNL d   1       8.732   1.547  10.470  0.00  0.00     0.037 A 
ATOM     29  C   UNL d   1       8.229   2.334  10.828  0.00  0.00     0.065 A 
ATOM     30  C   UNL d   1       7.890   3.037  10.203  0.00  0.00     0.037 A 
ATOM     31  C   UNL d   1       8.053   2.952   9.220  0.00  0.00     0.017 A 
BRANCH  29  32
ATOM     32  O   UNL d   1       8.066   2.418  11.811  0.00  0.00    -0.361 OA
ATOM     33  H   UNL d   1       7.820   1.944  12.126  0.00  0.00     0.217 HD
ENDBRANCH  29  32
ENDBRANCH   4  26
BRANCH   8  34
ATOM     34  O   UNL d   1       8.748   1.085   4.377  0.00  0.00    -0.360 OA
ATOM     35  H   UNL d   1       8.908   0.972   3.788  0.00  0.00     0.217 HD
ENDBRANCH   8  34
BRANCH  11  36
ATOM     36  O   UNL d   1      10.928   3.872   4.485  0.00  0.00    -0.361 OA
ATOM     37  H   UNL d   1      11.527   3.893   4.642  0.00  0.00     0.217 HD
ENDBRANCH  11  36
TORSDOF 9
ENDMDL
MODEL 4
REMARK VINA RESULT:    -7.317      0.904      1.572
REMARK INTER + INTRA:           2.572
REMARK INTER:                  -9.981
REMARK INTRA:                  12.553
REMARK UNBOUND:                12.456
REMARK  9 active torsions:
REMARK  status: ('A' for Active; 'I' for Inactive)
REMARK    1  A    between atoms: C_15  and  O_2 
REMARK    2  A    between atoms: O_2  and  C_17 
REMARK    3  A    between atoms: C_11  and  O_3 
REMARK    4  A    between atoms: C_12  and  O_4 
REMARK    5  A    between atoms: C_13  and  O_5 
REMARK    6  A    between atoms: O_8  and  C_23 
REMARK    7  A    between atoms: O_9  and  C_28 
REMARK    8  A    between atoms: O_10  and  C_31 
REMARK    9  A    between atoms: C_18  and  C_22 
ROOT
ATOM      1  O   UNL d   1       7.609   0.562   5.755  0.00  0.00    -0.306 OA
ATOM      2  O   UNL d   1       8.968   2.821   7.187  0.00  0.00    -0.284 OA
ATOM      3  C   UNL d   1       7.666   1.685   7.073  0.00  0.00     0.157 A 
ATOM      4  C   UNL d   1       7.213   0.932   6.596  0.00  0.00     0.123 A 
ATOM      5  C   UNL d   1       8.515   2.068   6.710  0.00  0.00     0.223 A 
ATOM      6  C   UNL d   1       8.911   1.699   5.869  0.00  0.00     0.084 A 
ATOM      7  C   UNL d   1       8.458   0.946   5.392  0.00  0.00     0.096 A 
ATOM      8  C   UNL d   1       9.796   2.109   5.503  0.00  0.00     0.085 A 
ATOM      9  C   UNL d   1       8.859   0.550   4.515  0.00  0.00     0.075 A 
ATOM     10  C   UNL d   1      10.214   1.729   4.628  0.00  0.00     0.074 A 
ATOM     11  C   UNL d   1       9.743   0.945   4.130  0.00  0.00     0.071 A 
ENDROOT
BRANCH   3  12
ATOM     12  O   UNL d   1       7.270   2.054   7.914  0.00  0.00    -0.311 OA
BRANCH  12  13
ATOM     13  C   UNL d   1       7.721   1.894   8.792  0.00  0.00     0.298 A 
ATOM     14  O   UNL d   1       8.222   1.042   8.948  0.00  0.00    -0.351 OA
ATOM     15  C   UNL d   1       8.673   0.882   9.826  0.00  0.00     0.152 A 
ATOM     16  C   UNL d   1       8.623   1.573  10.547  0.00  0.00     0.178 A 
ATOM     17  C   UNL d   1       9.174   0.031   9.983  0.00  0.00     0.042 C 
ATOM     18  C   UNL d   1       8.123   2.424  10.391  0.00  0.00     0.183 A 
ATOM     19  C   UNL d   1       7.671   2.584   9.513  0.00  0.00     0.205 A 
BRANCH  16  20
ATOM     20  O   UNL d   1       9.075   1.412  11.425  0.00  0.00    -0.390 OA
ATOM     21  H   UNL d   1       8.963   1.789  11.905  0.00  0.00     0.210 HD
ENDBRANCH  16  20
BRANCH  18  22
ATOM     22  O   UNL d   1       8.073   3.115  11.112  0.00  0.00    -0.390 OA
ATOM     23  H   UNL d   1       8.138   2.949  11.706  0.00  0.00     0.210 HD
ENDBRANCH  18  22
BRANCH  19  24
ATOM     24  O   UNL d   1       7.171   3.436   9.356  0.00  0.00    -0.388 OA
ATOM     25  H   UNL d   1       6.988   3.781   9.838  0.00  0.00     0.210 HD
ENDBRANCH  19  24
ENDBRANCH  12  13
ENDBRANCH   3  12
BRANCH   4  26
ATOM     26  C   UNL d   1       6.364   0.548   6.959  0.00  0.00     0.001 A 
ATOM     27  C   UNL d   1       5.527   1.095   6.958  0.00  0.00     0.017 A 
ATOM     28  C   UNL d   1       4.678   0.712   7.321  0.00  0.00     0.037 A 
ATOM     29  C   UNL d   1       4.666  -0.219   7.686  0.00  0.00     0.065 A 
ATOM     30  C   UNL d   1       5.503  -0.767   7.688  0.00  0.00     0.037 A 
ATOM     31  C   UNL d   1       6.352  -0.383   7.324  0.00  0.00     0.017 A 
BRANCH  29  32
ATOM     32  O   UNL d   1       3.817  -0.603   8.049  0.00  0.00    -0.361 OA
ATOM     33  H   UNL d   1       3.807  -1.184   8.266  0.00  0.00     0.217 HD
ENDBRANCH  29  32
ENDBRANCH   4  26
BRANCH   8  34
ATOM     34  O   UNL d   1      10.240   2.862   5.988  0.00  0.00    -0.360 OA
ATOM     35  H   UNL d   1      10.592   3.267   5.677  0.00  0.00     0.217 HD
ENDBRANCH   8  34
BRANCH  11  36
ATOM     36  O   UNL d   1      10.136   0.573   3.289  0.00  0.00    -0.361 OA
ATOM     37  H   UNL d   1      10.649   0.226   3.314  0.00  0.00     0.217 HD
ENDBRANCH  11  36
TORSDOF 9
ENDMDL
MODEL 5
REMARK VINA RESULT:    -7.314      2.255      5.593
REMARK INTER + INTRA:           2.576
REMARK INTER:                  -9.824
REMARK INTRA:                  12.399
REMARK UNBOUND:                12.456
REMARK  9 active torsions:
REMARK  status: ('A' for Active; 'I' for Inactive)
REMARK    1  A    between atoms: C_15  and  O_2 
REMARK    2  A    between atoms: O_2  and  C_17 
REMARK    3  A    between atoms: C_11  and  O_3 
REMARK    4  A    between atoms: C_12  and  O_4 
REMARK    5  A    between atoms: C_13  and  O_5 
REMARK    6  A    between atoms: O_8  and  C_23 
REMARK    7  A    between atoms: O_9  and  C_28 
REMARK    8  A    between atoms: O_10  and  C_31 
REMARK    9  A    between atoms: C_18  and  C_22 
ROOT
ATOM      1  O   UNL d   1       8.872   5.756   7.346  0.00  0.00    -0.306 OA
ATOM      2  O   UNL d   1       7.583   4.393   9.687  0.00  0.00    -0.284 OA
ATOM      3  C   UNL d   1       8.524   4.311   8.236  0.00  0.00     0.157 A 
ATOM      4  C   UNL d   1       8.954   4.765   7.455  0.00  0.00     0.123 A 
ATOM      5  C   UNL d   1       8.013   4.848   8.907  0.00  0.00     0.223 A 
ATOM      6  C   UNL d   1       7.931   5.838   8.797  0.00  0.00     0.084 A 
ATOM      7  C   UNL d   1       8.361   6.292   8.017  0.00  0.00     0.096 A 
ATOM      8  C   UNL d   1       7.395   6.384   9.505  0.00  0.00     0.085 A 
ATOM      9  C   UNL d   1       8.284   7.324   7.890  0.00  0.00     0.075 A 
ATOM     10  C   UNL d   1       7.305   7.416   9.397  0.00  0.00     0.074 A 
ATOM     11  C   UNL d   1       7.752   7.889   8.584  0.00  0.00     0.071 A 
ENDROOT
BRANCH   3  12
ATOM     12  O   UNL d   1       8.606   3.320   8.345  0.00  0.00    -0.311 OA
BRANCH  12  13
ATOM     13  C   UNL d   1       7.806   2.735   8.216  0.00  0.00     0.298 A 
ATOM     14  O   UNL d   1       7.037   3.054   7.661  0.00  0.00    -0.351 OA
ATOM     15  C   UNL d   1       6.237   2.469   7.532  0.00  0.00     0.152 A 
ATOM     16  C   UNL d   1       6.205   1.565   7.958  0.00  0.00     0.178 A 
ATOM     17  C   UNL d   1       5.469   2.788   6.977  0.00  0.00     0.042 C 
ATOM     18  C   UNL d   1       6.973   1.246   8.513  0.00  0.00     0.183 A 
ATOM     19  C   UNL d   1       7.773   1.831   8.642  0.00  0.00     0.205 A 
BRANCH  16  20
ATOM     20  O   UNL d   1       5.404   0.980   7.829  0.00  0.00    -0.390 OA
ATOM     21  H   UNL d   1       5.465   0.426   7.556  0.00  0.00     0.210 HD
ENDBRANCH  16  20
BRANCH  18  22
ATOM     22  O   UNL d   1       6.941   0.342   8.939  0.00  0.00    -0.390 OA
ATOM     23  H   UNL d   1       7.223  -0.139   8.668  0.00  0.00     0.210 HD
ENDBRANCH  18  22
BRANCH  19  24
ATOM     24  O   UNL d   1       8.542   1.512   9.197  0.00  0.00    -0.388 OA
ATOM     25  H   UNL d   1       8.675   0.907   9.222  0.00  0.00     0.210 HD
ENDBRANCH  19  24
ENDBRANCH  12  13
ENDBRANCH   3  12
BRANCH   4  26
ATOM     26  C   UNL d   1       9.466   4.229   6.784  0.00  0.00     0.001 A 
ATOM     27  C   UNL d   1      10.366   3.862   7.019  0.00  0.00     0.017 A 
ATOM     28  C   UNL d   1      10.878   3.326   6.348  0.00  0.00     0.037 A 
ATOM     29  C   UNL d   1      10.489   3.156   5.442  0.00  0.00     0.065 A 
ATOM     30  C   UNL d   1       9.589   3.522   5.208  0.00  0.00     0.037 A 
ATOM     31  C   UNL d   1       9.077   4.059   5.879  0.00  0.00     0.017 A 
BRANCH  29  32
ATOM     32  O   UNL d   1      11.001   2.619   4.771  0.00  0.00    -0.361 OA
ATOM     33  H   UNL d   1      11.510   2.856   4.508  0.00  0.00     0.217 HD
ENDBRANCH  29  32
ENDBRANCH   4  26
BRANCH   8  34
ATOM     34  O   UNL d   1       6.969   5.919  10.281  0.00  0.00    -0.360 OA
ATOM     35  H   UNL d   1       6.412   6.102  10.484  0.00  0.00     0.217 HD
ENDBRANCH   8  34
BRANCH  11  36
ATOM     36  O   UNL d   1       7.673   8.880   8.472  0.00  0.00    -0.361 OA
ATOM     37  H   UNL d   1       7.931   9.158   7.981  0.00  0.00     0.217 HD
ENDBRANCH  11  36
TORSDOF 9
ENDMDL
