MODEL 1
REMARK VINA RESULT:    -9.858      0.000      0.000
REMARK INTER + INTRA:          12.762
REMARK INTER:                 -16.404
REMARK INTRA:                  29.166
REMARK UNBOUND:                29.247
REMARK  18 active torsions:
REMARK  status: ('A' for Active; 'I' for Inactive)
REMARK    1  A    between atoms: C_20  and  O_4 
REMARK    2  A    between atoms: C_26  and  O_5 
REMARK    3  A    between atoms: O_7  and  C_33 
REMARK    4  A    between atoms: O_8  and  C_36 
REMARK    5  A    between atoms: O_9  and  C_39 
REMARK    6  A    between atoms: C_43  and  O_10 
REMARK    7  A    between atoms: O_11  and  C_47 
REMARK    8  A    between atoms: O_12  and  C_48 
REMARK    9  A    between atoms: O_13  and  C_52 
REMARK   10  A    between atoms: O_14  and  C_55 
REMARK   11  A    between atoms: O_15  and  C_56 
REMARK   12  A    between atoms: O_16  and  C_58 
REMARK   13  A    between atoms: O_17  and  C_61 
REMARK   14  A    between atoms: O_18  and  C_63 
REMARK   15  A    between atoms: C_21  and  C_32 
REMARK   16  A    between atoms: C_23  and  C_30 
REMARK   17  A    between atoms: C_29  and  C_37 
REMARK   18  A    between atoms: C_42  and  C_54 
ROOT
ATOM      1  O   UNL d   1       7.648  -0.880   5.398  0.00  0.00    -0.306 OA
ATOM      2  O   UNL d   1       6.674   0.834   8.249  0.00  0.00    -0.306 OA
ATOM      3  O   UNL d   1       8.921   2.322   5.495  0.00  0.00    -0.337 OA
ATOM      4  C   UNL d   1       7.522   0.558   6.621  0.00  0.00     0.097 A 
ATOM      5  C   UNL d   1       6.629  -1.220   6.882  0.00  0.00     0.199 A 
ATOM      6  C   UNL d   1       6.948  -0.065   7.153  0.00  0.00     0.231 A 
ATOM      7  C   UNL d   1       8.297   0.601   5.341  0.00  0.00     0.021 A 
ATOM      8  C   UNL d   1       9.932   2.071   3.609  0.00  0.00     0.094 A 
ATOM      9  C   UNL d   1       8.856   1.387   4.949  0.00  0.00     0.089 A 
ATOM     10  C   UNL d   1       9.344   1.266   4.037  0.00  0.00     0.020 A 
ATOM     11  C   UNL d   1      10.012   3.016   4.137  0.00  0.00     0.165 A 
ATOM     12  C   UNL d   1       7.601   1.843   7.389  0.00  0.00     0.020 A 
ATOM     13  C   UNL d   1       8.223  -0.269   4.854  0.00  0.00     0.085 A 
ATOM     14  C   UNL d   1       9.503   3.143   5.087  0.00  0.00     0.192 A 
ATOM     15  C   UNL d   1       7.067   1.754   8.230  0.00  0.00     0.085 A 
ATOM     16  C   UNL d   1       9.268   0.360   3.530  0.00  0.00     0.078 A 
ATOM     17  C   UNL d   1       8.703  -0.413   3.941  0.00  0.00     0.074 A 
ATOM     18  C   UNL d   1       8.102   2.729   7.165  0.00  0.00     0.078 A 
ATOM     19  C   UNL d   1       6.996   2.544   8.904  0.00  0.00     0.074 A 
ATOM     20  C   UNL d   1       8.045   3.532   7.825  0.00  0.00     0.073 A 
ATOM     21  C   UNL d   1       7.489   3.440   8.701  0.00  0.00     0.071 A 
ENDROOT
BRANCH   8  22
ATOM     22  C   UNL d   1      10.398   1.944   2.733  0.00  0.00     0.020 A 
ATOM     23  C   UNL d   1      11.336   1.600   2.711  0.00  0.00     0.088 A 
ATOM     24  O   UNL d   1      11.817   1.379   3.608  0.00  0.00    -0.337 OA
ATOM     25  C   UNL d   1      11.801   1.472   1.835  0.00  0.00     0.012 A 
ATOM     26  C   UNL d   1      12.794   1.020   3.593  0.00  0.00     0.191 A 
ATOM     27  C   UNL d   1      13.279   0.887   2.681  0.00  0.00     0.156 A 
ATOM     28  C   UNL d   1      12.780   1.114   1.795  0.00  0.00     0.079 A 
ATOM     29  C   UNL d   1      11.328   1.688   0.981  0.00  0.00     0.077 A 
ATOM     30  C   UNL d   1      10.389   2.032   1.003  0.00  0.00     0.074 A 
ATOM     31  C   UNL d   1       9.925   2.160   1.879  0.00  0.00     0.078 A 
BRANCH  26  32
ATOM     32  C   UNL d   1      13.264   0.805   4.449  0.00  0.00    -0.024 A 
ATOM     33  C   UNL d   1      13.832   1.498   4.895  0.00  0.00     0.049 A 
ATOM     34  C   UNL d   1      14.302   1.283   5.751  0.00  0.00     0.099 A 
ATOM     35  C   UNL d   1      14.205   0.376   6.161  0.00  0.00     0.098 A 
ATOM     36  C   UNL d   1      13.638  -0.317   5.714  0.00  0.00     0.040 A 
ATOM     37  C   UNL d   1      13.168  -0.102   4.859  0.00  0.00     0.013 A 
BRANCH  34  38
ATOM     38  O   UNL d   1      14.869   1.975   6.199  0.00  0.00    -0.358 OA
ATOM     39  H   UNL d   1      14.920   2.540   5.949  0.00  0.00     0.217 HD
ENDBRANCH  34  38
BRANCH  35  40
ATOM     40  O   UNL d   1      14.675   0.160   7.017  0.00  0.00    -0.358 OA
ATOM     41  H   UNL d   1      15.030  -0.346   7.057  0.00  0.00     0.217 HD
ENDBRANCH  35  40
ENDBRANCH  26  32
BRANCH  27  42
ATOM     42  O   UNL d   1      14.218   0.543   2.655  0.00  0.00    -0.392 OA
ATOM     43  H   UNL d   1      14.340  -0.039   2.834  0.00  0.00     0.210 HD
ENDBRANCH  27  42
BRANCH  29  44
ATOM     44  O   UNL d   1      11.794   1.560   0.105  0.00  0.00    -0.360 OA
ATOM     45  H   UNL d   1      11.812   0.998  -0.157  0.00  0.00     0.217 HD
ENDBRANCH  29  44
BRANCH  31  46
ATOM     46  O   UNL d   1       9.202   2.456   1.254  0.00  0.00    -0.360 OA
ATOM     47  H   UNL d   1       8.973   2.060   0.836  0.00  0.00     0.217 HD
ENDBRANCH  31  46
ENDBRANCH   8  22
BRANCH  11  48
ATOM     48  O   UNL d   1      10.552   3.764   3.751  0.00  0.00    -0.392 OA
ATOM     49  H   UNL d   1      10.427   4.350   3.911  0.00  0.00     0.210 HD
ENDBRANCH  11  48
BRANCH  16  50
ATOM     50  O   UNL d   1       9.395  -0.338   2.825  0.00  0.00    -0.360 OA
ATOM     51  H   UNL d   1       9.962  -0.560   2.706  0.00  0.00     0.217 HD
ENDBRANCH  16  50
BRANCH  14  52
ATOM     52  C   UNL d   1       9.570   4.008   5.582  0.00  0.00    -0.024 A 
ATOM     53  C   UNL d   1      10.315   4.156   6.233  0.00  0.00     0.049 A 
ATOM     54  C   UNL d   1      10.382   5.021   6.728  0.00  0.00     0.099 A 
ATOM     55  C   UNL d   1       9.703   5.740   6.573  0.00  0.00     0.098 A 
ATOM     56  C   UNL d   1       8.959   5.592   5.923  0.00  0.00     0.040 A 
ATOM     57  C   UNL d   1       8.891   4.727   5.427  0.00  0.00     0.013 A 
BRANCH  54  58
ATOM     58  O   UNL d   1      11.126   5.169   7.379  0.00  0.00    -0.358 OA
ATOM     59  H   UNL d   1      11.066   4.983   7.967  0.00  0.00     0.217 HD
ENDBRANCH  54  58
BRANCH  55  60
ATOM     60  O   UNL d   1       9.771   6.606   7.069  0.00  0.00    -0.358 OA
ATOM     61  H   UNL d   1      10.326   6.823   7.238  0.00  0.00     0.217 HD
ENDBRANCH  55  60
ENDBRANCH  14  52
BRANCH   5  62
ATOM     62  O   UNL d   1       6.308  -2.160   6.764  0.00  0.00    -0.389 OA
ATOM     63  H   UNL d   1       6.494  -2.602   7.157  0.00  0.00     0.210 HD
ENDBRANCH   5  62
BRANCH   6  64
ATOM     64  C   UNL d   1       6.375  -0.688   7.685  0.00  0.00     0.010 A 
ATOM     65  C   UNL d   1       5.378  -0.624   7.626  0.00  0.00     0.052 A 
ATOM     66  C   UNL d   1       4.806  -1.248   8.158  0.00  0.00     0.099 A 
ATOM     67  C   UNL d   1       5.229  -1.935   8.749  0.00  0.00     0.098 A 
ATOM     68  C   UNL d   1       6.225  -1.999   8.807  0.00  0.00     0.040 A 
ATOM     69  C   UNL d   1       6.798  -1.376   8.275  0.00  0.00     0.015 A 
BRANCH  66  70
ATOM     70  O   UNL d   1       3.809  -1.184   8.100  0.00  0.00    -0.358 OA
ATOM     71  H   UNL d   1       3.545  -0.891   7.621  0.00  0.00     0.217 HD
ENDBRANCH  66  70
BRANCH  67  72
ATOM     72  O   UNL d   1       4.655  -2.558   9.281  0.00  0.00    -0.358 OA
ATOM     73  H   UNL d   1       4.648  -3.163   9.147  0.00  0.00     0.217 HD
ENDBRANCH  67  72
ENDBRANCH   6  64
BRANCH  18  74
ATOM     74  O   UNL d   1       8.634   2.807   6.321  0.00  0.00    -0.360 OA
ATOM     75  H   UNL d   1       8.471   3.221   5.890  0.00  0.00     0.217 HD
ENDBRANCH  18  74
BRANCH  21  76
ATOM     76  O   UNL d   1       7.427   4.205   9.342  0.00  0.00    -0.361 OA
ATOM     77  H   UNL d   1       7.813   4.235   9.826  0.00  0.00     0.217 HD
ENDBRANCH  21  76
TORSDOF 18
ENDMDL
MODEL 2
REMARK VINA RESULT:    -9.449      1.740      6.522
REMARK INTER + INTRA:          13.445
REMARK INTER:                 -15.798
REMARK INTRA:                  29.243
REMARK UNBOUND:                29.247
REMARK  18 active torsions:
REMARK  status: ('A' for Active; 'I' for Inactive)
REMARK    1  A    between atoms: C_20  and  O_4 
REMARK    2  A    between atoms: C_26  and  O_5 
REMARK    3  A    between atoms: O_7  and  C_33 
REMARK    4  A    between atoms: O_8  and  C_36 
REMARK    5  A    between atoms: O_9  and  C_39 
REMARK    6  A    between atoms: C_43  and  O_10 
REMARK    7  A    between atoms: O_11  and  C_47 
REMARK    8  A    between atoms: O_12  and  C_48 
REMARK    9  A    between atoms: O_13  and  C_52 
REMARK   10  A    between atoms: O_14  and  C_55 
REMARK   11  A    between atoms: O_15  and  C_56 
REMARK   12  A    between atoms: O_16  and  C_58 
REMARK   13  A    between atoms: O_17  and  C_61 
REMARK   14  A    between atoms: O_18  and  C_63 
REMARK   15  A    between atoms: C_21  and  C_32 
REMARK   16  A    between atoms: C_23  and  C_30 
REMARK   17  A    between atoms: C_29  and  C_37 
REMARK   18  A    between atoms: C_42  and  C_54 
ROOT
ATOM      1  O   UNL d   1       8.782   0.164   3.919  0.00  0.00    -0.306 OA
ATOM      2  O   UNL d   1      10.505   3.171   3.964  0.00  0.00    -0.306 OA
ATOM      3  O   UNL d   1       8.096   2.020   6.742  0.00  0.00    -0.337 OA
ATOM      4  C   UNL d   1       9.354   1.846   4.568  0.00  0.00     0.097 A 
ATOM      5  C   UNL d   1       9.970   1.042   2.836  0.00  0.00     0.199 A 
ATOM      6  C   UNL d   1       9.899   1.881   3.731  0.00  0.00     0.231 A 
ATOM      7  C   UNL d   1       8.388   0.949   5.277  0.00  0.00     0.021 A 
ATOM      8  C   UNL d   1       6.746   0.523   7.505  0.00  0.00     0.094 A 
ATOM      9  C   UNL d   1       7.909   1.105   6.189  0.00  0.00     0.089 A 
ATOM     10  C   UNL d   1       7.257   0.382   6.557  0.00  0.00     0.020 A 
ATOM     11  C   UNL d   1       6.917   1.429   8.075  0.00  0.00     0.165 A 
ATOM     12  C   UNL d   1       9.624   3.115   5.319  0.00  0.00     0.020 A 
ATOM     13  C   UNL d   1       8.231   0.113   4.751  0.00  0.00     0.085 A 
ATOM     14  C   UNL d   1       7.597   2.184   7.692  0.00  0.00     0.192 A 
ATOM     15  C   UNL d   1      10.273   3.670   4.799  0.00  0.00     0.085 A 
ATOM     16  C   UNL d   1       7.092  -0.489   6.010  0.00  0.00     0.078 A 
ATOM     17  C   UNL d   1       7.583  -0.624   5.100  0.00  0.00     0.074 A 
ATOM     18  C   UNL d   1       9.247   3.448   6.232  0.00  0.00     0.078 A 
ATOM     19  C   UNL d   1      10.590   4.596   5.155  0.00  0.00     0.074 A 
ATOM     20  C   UNL d   1       9.550   4.371   6.607  0.00  0.00     0.073 A 
ATOM     21  C   UNL d   1      10.226   4.949   6.065  0.00  0.00     0.071 A 
ENDROOT
BRANCH   8  22
ATOM     22  C   UNL d   1       6.122  -0.179   7.849  0.00  0.00     0.020 A 
ATOM     23  C   UNL d   1       6.476  -0.937   8.396  0.00  0.00     0.088 A 
ATOM     24  O   UNL d   1       7.497  -0.983   8.600  0.00  0.00    -0.337 OA
ATOM     25  C   UNL d   1       5.852  -1.639   8.741  0.00  0.00     0.012 A 
ATOM     26  C   UNL d   1       7.872  -1.770   9.169  0.00  0.00     0.191 A 
ATOM     27  C   UNL d   1       7.222  -2.501   9.528  0.00  0.00     0.156 A 
ATOM     28  C   UNL d   1       6.205  -2.435   9.312  0.00  0.00     0.079 A 
ATOM     29  C   UNL d   1       4.874  -1.582   8.538  0.00  0.00     0.077 A 
ATOM     30  C   UNL d   1       4.521  -0.823   7.990  0.00  0.00     0.074 A 
ATOM     31  C   UNL d   1       5.145  -0.122   7.646  0.00  0.00     0.078 A 
BRANCH  26  32
ATOM     32  C   UNL d   1       8.850  -1.824   9.370  0.00  0.00    -0.024 A 
ATOM     33  C   UNL d   1       9.232  -1.308  10.137  0.00  0.00     0.049 A 
ATOM     34  C   UNL d   1      10.210  -1.361  10.338  0.00  0.00     0.099 A 
ATOM     35  C   UNL d   1      10.806  -1.931   9.773  0.00  0.00     0.098 A 
ATOM     36  C   UNL d   1      10.424  -2.447   9.005  0.00  0.00     0.040 A 
ATOM     37  C   UNL d   1       9.446  -2.394   8.804  0.00  0.00     0.013 A 
BRANCH  34  38
ATOM     38  O   UNL d   1      10.592  -0.845  11.105  0.00  0.00    -0.358 OA
ATOM     39  H   UNL d   1      11.024  -0.412  11.001  0.00  0.00     0.217 HD
ENDBRANCH  34  38
BRANCH  35  40
ATOM     40  O   UNL d   1      11.784  -1.985   9.973  0.00  0.00    -0.358 OA
ATOM     41  H   UNL d   1      12.174  -1.569   9.730  0.00  0.00     0.217 HD
ENDBRANCH  35  40
ENDBRANCH  26  32
BRANCH  27  42
ATOM     42  O   UNL d   1       7.572  -3.261  10.075  0.00  0.00    -0.392 OA
ATOM     43  H   UNL d   1       7.898  -3.715   9.804  0.00  0.00     0.210 HD
ENDBRANCH  27  42
BRANCH  29  44
ATOM     44  O   UNL d   1       4.251  -2.284   8.882  0.00  0.00    -0.360 OA
ATOM     45  H   UNL d   1       3.675  -2.129   9.054  0.00  0.00     0.217 HD
ENDBRANCH  29  44
BRANCH  31  46
ATOM     46  O   UNL d   1       4.280   0.220   7.279  0.00  0.00    -0.360 OA
ATOM     47  H   UNL d   1       3.905  -0.161   6.965  0.00  0.00     0.217 HD
ENDBRANCH  31  46
ENDBRANCH   8  22
BRANCH  11  48
ATOM     48  O   UNL d   1       6.451   1.569   8.950  0.00  0.00    -0.392 OA
ATOM     49  H   UNL d   1       6.202   1.087   9.248  0.00  0.00     0.210 HD
ENDBRANCH  11  48
BRANCH  16  50
ATOM     50  O   UNL d   1       6.731  -1.385   5.753  0.00  0.00    -0.360 OA
ATOM     51  H   UNL d   1       7.118  -1.836   5.573  0.00  0.00     0.217 HD
ENDBRANCH  16  50
BRANCH  14  52
ATOM     52  C   UNL d   1       7.761   3.022   8.209  0.00  0.00    -0.024 A 
ATOM     53  C   UNL d   1       8.484   3.050   8.901  0.00  0.00     0.049 A 
ATOM     54  C   UNL d   1       8.649   3.889   9.418  0.00  0.00     0.099 A 
ATOM     55  C   UNL d   1       8.092   4.701   9.245  0.00  0.00     0.098 A 
ATOM     56  C   UNL d   1       7.370   4.674   8.554  0.00  0.00     0.040 A 
ATOM     57  C   UNL d   1       7.204   3.835   8.036  0.00  0.00     0.013 A 
BRANCH  54  58
ATOM     58  O   UNL d   1       9.371   3.916  10.109  0.00  0.00    -0.358 OA
ATOM     59  H   UNL d   1       9.278   3.657  10.665  0.00  0.00     0.217 HD
ENDBRANCH  54  58
BRANCH  55  60
ATOM     60  O   UNL d   1       8.257   5.540   9.763  0.00  0.00    -0.358 OA
ATOM     61  H   UNL d   1       7.779   5.874   9.973  0.00  0.00     0.217 HD
ENDBRANCH  55  60
ENDBRANCH  14  52
BRANCH   5  62
ATOM     62  O   UNL d   1      10.105   0.433   2.054  0.00  0.00    -0.389 OA
ATOM     63  H   UNL d   1       9.653   0.360   1.636  0.00  0.00     0.210 HD
ENDBRANCH   5  62
BRANCH   6  64
ATOM     64  C   UNL d   1      10.444   1.916   2.893  0.00  0.00     0.010 A 
ATOM     65  C   UNL d   1      10.084   2.375   2.080  0.00  0.00     0.052 A 
ATOM     66  C   UNL d   1      10.629   2.410   1.243  0.00  0.00     0.099 A 
ATOM     67  C   UNL d   1      11.534   1.986   1.217  0.00  0.00     0.098 A 
ATOM     68  C   UNL d   1      11.895   1.527   2.030  0.00  0.00     0.040 A 
ATOM     69  C   UNL d   1      11.350   1.492   2.868  0.00  0.00     0.015 A 
BRANCH  66  70
ATOM     70  O   UNL d   1      10.269   2.868   0.431  0.00  0.00    -0.358 OA
ATOM     71  H   UNL d   1      10.256   2.572  -0.114  0.00  0.00     0.217 HD
ENDBRANCH  66  70
BRANCH  67  72
ATOM     72  O   UNL d   1      12.079   2.021   0.380  0.00  0.00    -0.358 OA
ATOM     73  H   UNL d   1      12.488   1.572   0.257  0.00  0.00     0.217 HD
ENDBRANCH  67  72
ENDBRANCH   6  64
BRANCH  18  74
ATOM     74  O   UNL d   1       8.598   2.884   6.744  0.00  0.00    -0.360 OA
ATOM     75  H   UNL d   1       8.630   2.267   6.709  0.00  0.00     0.217 HD
ENDBRANCH  18  74
BRANCH  21  76
ATOM     76  O   UNL d   1      10.523   5.837   6.416  0.00  0.00    -0.361 OA
ATOM     77  H   UNL d   1      10.157   6.156   6.801  0.00  0.00     0.217 HD
ENDBRANCH  21  76
TORSDOF 18
ENDMDL
MODEL 3
REMARK VINA RESULT:    -9.035      1.769      2.395
REMARK INTER + INTRA:          14.138
REMARK INTER:                 -15.066
REMARK INTRA:                  29.204
REMARK UNBOUND:                29.247
REMARK  18 active torsions:
REMARK  status: ('A' for Active; 'I' for Inactive)
REMARK    1  A    between atoms: C_20  and  O_4 
REMARK    2  A    between atoms: C_26  and  O_5 
REMARK    3  A    between atoms: O_7  and  C_33 
REMARK    4  A    between atoms: O_8  and  C_36 
REMARK    5  A    between atoms: O_9  and  C_39 
REMARK    6  A    between atoms: C_43  and  O_10 
REMARK    7  A    between atoms: O_11  and  C_47 
REMARK    8  A    between atoms: O_12  and  C_48 
REMARK    9  A    between atoms: O_13  and  C_52 
REMARK   10  A    between atoms: O_14  and  C_55 
REMARK   11  A    between atoms: O_15  and  C_56 
REMARK   12  A    between atoms: O_16  and  C_58 
REMARK   13  A    between atoms: O_17  and  C_61 
REMARK   14  A    between atoms: O_18  and  C_63 
REMARK   15  A    between atoms: C_21  and  C_32 
REMARK   16  A    between atoms: C_23  and  C_30 
REMARK   17  A    between atoms: C_29  and  C_37 
REMARK   18  A    between atoms: C_42  and  C_54 
ROOT
ATOM      1  O   UNL d   1       9.376   0.096   3.874  0.00  0.00    -0.306 OA
ATOM      2  O   UNL d   1       7.684   0.606   6.855  0.00  0.00    -0.306 OA
ATOM      3  O   UNL d   1       9.676   3.337   5.006  0.00  0.00    -0.337 OA
ATOM      4  C   UNL d   1       8.730   1.035   5.383  0.00  0.00     0.097 A 
ATOM      5  C   UNL d   1       8.355  -0.903   5.020  0.00  0.00     0.199 A 
ATOM      6  C   UNL d   1       8.307   0.163   5.629  0.00  0.00     0.231 A 
ATOM      7  C   UNL d   1       9.582   1.639   4.311  0.00  0.00     0.021 A 
ATOM      8  C   UNL d   1      10.896   3.906   3.324  0.00  0.00     0.094 A 
ATOM      9  C   UNL d   1       9.931   2.617   4.236  0.00  0.00     0.089 A 
ATOM     10  C   UNL d   1      10.521   2.892   3.423  0.00  0.00     0.020 A 
ATOM     11  C   UNL d   1      10.654   4.643   4.081  0.00  0.00     0.165 A 
ATOM     12  C   UNL d   1       8.368   2.017   6.456  0.00  0.00     0.020 A 
ATOM     13  C   UNL d   1       9.805   0.960   3.612  0.00  0.00     0.085 A 
ATOM     14  C   UNL d   1      10.040   4.357   4.929  0.00  0.00     0.192 A 
ATOM     15  C   UNL d   1       7.801   1.557   7.140  0.00  0.00     0.085 A 
ATOM     16  C   UNL d   1      10.754   2.185   2.695  0.00  0.00     0.078 A 
ATOM     17  C   UNL d   1      10.393   1.212   2.790  0.00  0.00     0.074 A 
ATOM     18  C   UNL d   1       8.617   3.024   6.557  0.00  0.00     0.078 A 
ATOM     19  C   UNL d   1       7.444   2.072   7.972  0.00  0.00     0.074 A 
ATOM     20  C   UNL d   1       8.271   3.558   7.381  0.00  0.00     0.073 A 
ATOM     21  C   UNL d   1       7.681   3.080   8.094  0.00  0.00     0.071 A 
ENDROOT
BRANCH   8  22
ATOM     22  C   UNL d   1      11.462   4.158   2.538  0.00  0.00     0.020 A 
ATOM     23  C   UNL d   1      12.457   4.075   2.592  0.00  0.00     0.088 A 
ATOM     24  O   UNL d   1      12.890   3.725   3.472  0.00  0.00    -0.337 OA
ATOM     25  C   UNL d   1      13.022   4.328   1.806  0.00  0.00     0.012 A 
ATOM     26  C   UNL d   1      13.926   3.636   3.534  0.00  0.00     0.191 A 
ATOM     27  C   UNL d   1      14.515   3.899   2.717  0.00  0.00     0.156 A 
ATOM     28  C   UNL d   1      14.060   4.248   1.846  0.00  0.00     0.079 A 
ATOM     29  C   UNL d   1      12.593   4.663   0.968  0.00  0.00     0.077 A 
ATOM     30  C   UNL d   1      11.597   4.746   0.915  0.00  0.00     0.074 A 
ATOM     31  C   UNL d   1      11.032   4.493   1.699  0.00  0.00     0.078 A 
BRANCH  26  32
ATOM     32  C   UNL d   1      14.352   3.301   4.375  0.00  0.00    -0.024 A 
ATOM     33  C   UNL d   1      14.467   3.914   5.156  0.00  0.00     0.049 A 
ATOM     34  C   UNL d   1      14.893   3.579   5.996  0.00  0.00     0.099 A 
ATOM     35  C   UNL d   1      15.204   2.630   6.055  0.00  0.00     0.098 A 
ATOM     36  C   UNL d   1      15.089   2.017   5.274  0.00  0.00     0.040 A 
ATOM     37  C   UNL d   1      14.663   2.352   4.434  0.00  0.00     0.013 A 
BRANCH  34  38
ATOM     38  O   UNL d   1      15.008   4.192   6.779  0.00  0.00    -0.358 OA
ATOM     39  H   UNL d   1      15.218   4.769   6.690  0.00  0.00     0.217 HD
ENDBRANCH  34  38
BRANCH  35  40
ATOM     40  O   UNL d   1      15.630   2.295   6.895  0.00  0.00    -0.358 OA
ATOM     41  H   UNL d   1      15.277   2.095   7.364  0.00  0.00     0.217 HD
ENDBRANCH  35  40
ENDBRANCH  26  32
BRANCH  27  42
ATOM     42  O   UNL d   1      15.510   3.818   2.767  0.00  0.00    -0.392 OA
ATOM     43  H   UNL d   1      15.768   3.311   3.016  0.00  0.00     0.210 HD
ENDBRANCH  27  42
BRANCH  29  44
ATOM     44  O   UNL d   1      13.158   4.916   0.183  0.00  0.00    -0.360 OA
ATOM     45  H   UNL d   1      13.707   5.192   0.272  0.00  0.00     0.217 HD
ENDBRANCH  29  44
BRANCH  31  46
ATOM     46  O   UNL d   1      10.320   4.775   1.057  0.00  0.00    -0.360 OA
ATOM     47  H   UNL d   1       9.734   4.590   1.144  0.00  0.00     0.217 HD
ENDBRANCH  31  46
ENDBRANCH   8  22
BRANCH  11  48
ATOM     48  O   UNL d   1      10.995   5.580   4.000  0.00  0.00    -0.392 OA
ATOM     49  H   UNL d   1      11.339   5.824   4.453  0.00  0.00     0.210 HD
ENDBRANCH  11  48
BRANCH  16  50
ATOM     50  O   UNL d   1      11.141   1.778   1.867  0.00  0.00    -0.360 OA
ATOM     51  H   UNL d   1      10.921   1.938   1.310  0.00  0.00     0.217 HD
ENDBRANCH  16  50
BRANCH  14  52
ATOM     52  C   UNL d   1       9.810   5.028   5.634  0.00  0.00    -0.024 A 
ATOM     53  C   UNL d   1      10.409   5.146   6.427  0.00  0.00     0.049 A 
ATOM     54  C   UNL d   1      10.180   5.817   7.131  0.00  0.00     0.099 A 
ATOM     55  C   UNL d   1       9.352   6.371   7.043  0.00  0.00     0.098 A 
ATOM     56  C   UNL d   1       8.753   6.253   6.251  0.00  0.00     0.040 A 
ATOM     57  C   UNL d   1       8.982   5.582   5.546  0.00  0.00     0.013 A 
BRANCH  54  58
ATOM     58  O   UNL d   1      10.778   5.934   7.923  0.00  0.00    -0.358 OA
ATOM     59  H   UNL d   1      11.218   6.372   7.918  0.00  0.00     0.217 HD
ENDBRANCH  54  58
BRANCH  55  60
ATOM     60  O   UNL d   1       9.123   7.042   7.748  0.00  0.00    -0.358 OA
ATOM     61  H   UNL d   1       9.060   7.640   7.598  0.00  0.00     0.217 HD
ENDBRANCH  55  60
ENDBRANCH  14  52
BRANCH   5  62
ATOM     62  O   UNL d   1       8.326  -1.815   4.612  0.00  0.00    -0.389 OA
ATOM     63  H   UNL d   1       8.043  -1.902   4.067  0.00  0.00     0.210 HD
ENDBRANCH   5  62
BRANCH   6  64
ATOM     64  C   UNL d   1       7.884  -0.709   5.876  0.00  0.00     0.010 A 
ATOM     65  C   UNL d   1       8.340  -1.321   6.522  0.00  0.00     0.052 A 
ATOM     66  C   UNL d   1       7.917  -2.193   6.768  0.00  0.00     0.099 A 
ATOM     67  C   UNL d   1       7.037  -2.453   6.370  0.00  0.00     0.098 A 
ATOM     68  C   UNL d   1       6.581  -1.840   5.724  0.00  0.00     0.040 A 
ATOM     69  C   UNL d   1       7.004  -0.968   5.477  0.00  0.00     0.015 A 
BRANCH  66  70
ATOM     70  O   UNL d   1       8.373  -2.805   7.414  0.00  0.00    -0.358 OA
ATOM     71  H   UNL d   1       8.827  -2.591   7.778  0.00  0.00     0.217 HD
ENDBRANCH  66  70
BRANCH  67  72
ATOM     72  O   UNL d   1       6.614  -3.325   6.616  0.00  0.00    -0.358 OA
ATOM     73  H   UNL d   1       6.103  -3.333   6.965  0.00  0.00     0.217 HD
ENDBRANCH  67  72
ENDBRANCH   6  64
BRANCH  18  74
ATOM     74  O   UNL d   1       9.184   3.473   5.867  0.00  0.00    -0.360 OA
ATOM     75  H   UNL d   1       9.774   3.298   5.789  0.00  0.00     0.217 HD
ENDBRANCH  18  74
BRANCH  21  76
ATOM     76  O   UNL d   1       7.344   3.584   8.889  0.00  0.00    -0.361 OA
ATOM     77  H   UNL d   1       7.643   3.545   9.430  0.00  0.00     0.217 HD
ENDBRANCH  21  76
TORSDOF 18
ENDMDL
MODEL 4
REMARK VINA RESULT:    -8.754      1.791      5.580
REMARK INTER + INTRA:          14.607
REMARK INTER:                 -15.293
REMARK INTRA:                  29.900
REMARK UNBOUND:                29.247
REMARK  18 active torsions:
REMARK  status: ('A' for Active; 'I' for Inactive)
REMARK    1  A    between atoms: C_20  and  O_4 
REMARK    2  A    between atoms: C_26  and  O_5 
REMARK    3  A    between atoms: O_7  and  C_33 
REMARK    4  A    between atoms: O_8  and  C_36 
REMARK    5  A    between atoms: O_9  and  C_39 
REMARK    6  A    between atoms: C_43  and  O_10 
REMARK    7  A    between atoms: O_11  and  C_47 
REMARK    8  A    between atoms: O_12  and  C_48 
REMARK    9  A    between atoms: O_13  and  C_52 
REMARK   10  A    between atoms: O_14  and  C_55 
REMARK   11  A    between atoms: O_15  and  C_56 
REMARK   12  A    between atoms: O_16  and  C_58 
REMARK   13  A    between atoms: O_17  and  C_61 
REMARK   14  A    between atoms: O_18  and  C_63 
REMARK   15  A    between atoms: C_21  and  C_32 
REMARK   16  A    between atoms: C_23  and  C_30 
REMARK   17  A    between atoms: C_29  and  C_37 
REMARK   18  A    between atoms: C_42  and  C_54 
ROOT
ATOM      1  O   UNL d   1      10.821   4.815   7.192  0.00  0.00    -0.306 OA
ATOM      2  O   UNL d   1       7.451   4.242   7.767  0.00  0.00    -0.306 OA
ATOM      3  O   UNL d   1       9.817   1.711   6.079  0.00  0.00    -0.337 OA
ATOM      4  C   UNL d   1       9.177   3.880   7.185  0.00  0.00     0.097 A 
ATOM      5  C   UNL d   1       9.417   5.726   7.935  0.00  0.00     0.199 A 
ATOM      6  C   UNL d   1       8.815   4.698   7.632  0.00  0.00     0.231 A 
ATOM      7  C   UNL d   1      10.460   3.340   6.635  0.00  0.00     0.021 A 
ATOM      8  C   UNL d   1      11.796   1.224   5.380  0.00  0.00     0.094 A 
ATOM      9  C   UNL d   1      10.634   2.416   6.187  0.00  0.00     0.089 A 
ATOM     10  C   UNL d   1      11.590   2.180   5.850  0.00  0.00     0.020 A 
ATOM     11  C   UNL d   1      10.995   0.502   5.261  0.00  0.00     0.165 A 
ATOM     12  C   UNL d   1       8.036   2.918   7.044  0.00  0.00     0.020 A 
ATOM     13  C   UNL d   1      11.199   4.005   6.744  0.00  0.00     0.085 A 
ATOM     14  C   UNL d   1       9.998   0.747   5.613  0.00  0.00     0.192 A 
ATOM     15  C   UNL d   1       7.211   3.332   7.428  0.00  0.00     0.085 A 
ATOM     16  C   UNL d   1      12.361   2.872   5.963  0.00  0.00     0.078 A 
ATOM     17  C   UNL d   1      12.163   3.791   6.414  0.00  0.00     0.074 A 
ATOM     18  C   UNL d   1       8.012   1.961   6.631  0.00  0.00     0.078 A 
ATOM     19  C   UNL d   1       6.304   2.819   7.426  0.00  0.00     0.074 A 
ATOM     20  C   UNL d   1       7.117   1.430   6.618  0.00  0.00     0.073 A 
ATOM     21  C   UNL d   1       6.257   1.861   7.018  0.00  0.00     0.071 A 
ENDROOT
BRANCH   8  22
ATOM     22  C   UNL d   1      12.719   1.008   5.060  0.00  0.00     0.020 A 
ATOM     23  C   UNL d   1      13.005   1.281   4.141  0.00  0.00     0.088 A 
ATOM     24  O   UNL d   1      12.332   1.789   3.530  0.00  0.00    -0.337 OA
ATOM     25  C   UNL d   1      13.928   1.066   3.821  0.00  0.00     0.012 A 
ATOM     26  C   UNL d   1      12.623   2.076   2.572  0.00  0.00     0.191 A 
ATOM     27  C   UNL d   1      13.584   1.852   2.238  0.00  0.00     0.156 A 
ATOM     28  C   UNL d   1      14.241   1.343   2.866  0.00  0.00     0.079 A 
ATOM     29  C   UNL d   1      14.564   0.578   4.418  0.00  0.00     0.077 A 
ATOM     30  C   UNL d   1      14.277   0.305   5.337  0.00  0.00     0.074 A 
ATOM     31  C   UNL d   1      13.355   0.520   5.657  0.00  0.00     0.078 A 
BRANCH  26  32
ATOM     32  C   UNL d   1      11.984   2.564   1.977  0.00  0.00    -0.024 A 
ATOM     33  C   UNL d   1      11.248   2.066   1.519  0.00  0.00     0.049 A 
ATOM     34  C   UNL d   1      10.609   2.554   0.924  0.00  0.00     0.099 A 
ATOM     35  C   UNL d   1      10.706   3.539   0.787  0.00  0.00     0.098 A 
ATOM     36  C   UNL d   1      11.443   4.038   1.245  0.00  0.00     0.040 A 
ATOM     37  C   UNL d   1      12.082   3.550   1.840  0.00  0.00     0.013 A 
BRANCH  34  38
ATOM     38  O   UNL d   1       9.872   2.056   0.466  0.00  0.00    -0.358 OA
ATOM     39  H   UNL d   1       9.749   1.470   0.626  0.00  0.00     0.217 HD
ENDBRANCH  34  38
BRANCH  35  40
ATOM     40  O   UNL d   1      10.068   4.027   0.192  0.00  0.00    -0.358 OA
ATOM     41  H   UNL d   1       9.804   4.553   0.386  0.00  0.00     0.217 HD
ENDBRANCH  35  40
ENDBRANCH  26  32
BRANCH  27  42
ATOM     42  O   UNL d   1      13.873   2.123   1.320  0.00  0.00    -0.392 OA
ATOM     43  H   UNL d   1      14.268   1.766   1.001  0.00  0.00     0.210 HD
ENDBRANCH  27  42
BRANCH  29  44
ATOM     44  O   UNL d   1      15.486   0.363   4.097  0.00  0.00    -0.360 OA
ATOM     45  H   UNL d   1      15.691   0.600   3.562  0.00  0.00     0.217 HD
ENDBRANCH  29  44
BRANCH  31  46
ATOM     46  O   UNL d   1      13.713   0.050   6.464  0.00  0.00    -0.360 OA
ATOM     47  H   UNL d   1      14.315   0.095   6.606  0.00  0.00     0.217 HD
ENDBRANCH  31  46
ENDBRANCH   8  22
BRANCH  11  48
ATOM     48  O   UNL d   1      11.173  -0.382   4.830  0.00  0.00    -0.392 OA
ATOM     49  H   UNL d   1      11.405  -0.849   5.166  0.00  0.00     0.210 HD
ENDBRANCH  11  48
BRANCH  16  50
ATOM     50  O   UNL d   1      13.271   3.283   5.920  0.00  0.00    -0.360 OA
ATOM     51  H   UNL d   1      13.661   3.126   5.463  0.00  0.00     0.217 HD
ENDBRANCH  16  50
BRANCH  14  52
ATOM     52  C   UNL d   1       9.252   0.090   5.508  0.00  0.00    -0.024 A 
ATOM     53  C   UNL d   1       8.683   0.106   4.685  0.00  0.00     0.049 A 
ATOM     54  C   UNL d   1       7.937  -0.550   4.581  0.00  0.00     0.099 A 
ATOM     55  C   UNL d   1       7.759  -1.224   5.299  0.00  0.00     0.098 A 
ATOM     56  C   UNL d   1       8.327  -1.240   6.121  0.00  0.00     0.040 A 
ATOM     57  C   UNL d   1       9.074  -0.583   6.227  0.00  0.00     0.013 A 
BRANCH  54  58
ATOM     58  O   UNL d   1       7.368  -0.535   3.759  0.00  0.00    -0.358 OA
ATOM     59  H   UNL d   1       6.750  -0.516   3.809  0.00  0.00     0.217 HD
ENDBRANCH  54  58
BRANCH  55  60
ATOM     60  O   UNL d   1       7.012  -1.880   5.194  0.00  0.00    -0.358 OA
ATOM     61  H   UNL d   1       6.830  -2.055   4.628  0.00  0.00     0.217 HD
ENDBRANCH  55  60
ENDBRANCH  14  52
BRANCH   5  62
ATOM     62  O   UNL d   1       9.802   6.602   8.224  0.00  0.00    -0.389 OA
ATOM     63  H   UNL d   1      10.162   6.925   7.837  0.00  0.00     0.210 HD
ENDBRANCH   5  62
BRANCH   6  64
ATOM     64  C   UNL d   1       8.453   5.516   8.079  0.00  0.00     0.010 A 
ATOM     65  C   UNL d   1       8.081   5.457   9.006  0.00  0.00     0.052 A 
ATOM     66  C   UNL d   1       7.720   6.276   9.452  0.00  0.00     0.099 A 
ATOM     67  C   UNL d   1       7.730   7.153   8.972  0.00  0.00     0.098 A 
ATOM     68  C   UNL d   1       8.102   7.212   8.046  0.00  0.00     0.040 A 
ATOM     69  C   UNL d   1       8.464   6.394   7.599  0.00  0.00     0.015 A 
BRANCH  66  70
ATOM     70  O   UNL d   1       7.347   6.217  10.378  0.00  0.00    -0.358 OA
ATOM     71  H   UNL d   1       6.811   5.922  10.479  0.00  0.00     0.217 HD
ENDBRANCH  66  70
BRANCH  67  72
ATOM     72  O   UNL d   1       7.368   7.971   9.419  0.00  0.00    -0.358 OA
ATOM     73  H   UNL d   1       7.218   7.955  10.020  0.00  0.00     0.217 HD
ENDBRANCH  67  72
ENDBRANCH   6  64
BRANCH  18  74
ATOM     74  O   UNL d   1       8.844   1.556   6.250  0.00  0.00    -0.360 OA
ATOM     75  H   UNL d   1       8.812   1.206   5.740  0.00  0.00     0.217 HD
ENDBRANCH  18  74
BRANCH  21  76
ATOM     76  O   UNL d   1       5.392   1.359   7.011  0.00  0.00    -0.361 OA
ATOM     77  H   UNL d   1       5.231   1.012   7.498  0.00  0.00     0.217 HD
ENDBRANCH  21  76
TORSDOF 18
ENDMDL
MODEL 5
REMARK VINA RESULT:    -8.723      1.156      4.416
REMARK INTER + INTRA:          14.660
REMARK INTER:                 -14.793
REMARK INTRA:                  29.454
REMARK UNBOUND:                29.247
REMARK  18 active torsions:
REMARK  status: ('A' for Active; 'I' for Inactive)
REMARK    1  A    between atoms: C_20  and  O_4 
REMARK    2  A    between atoms: C_26  and  O_5 
REMARK    3  A    between atoms: O_7  and  C_33 
REMARK    4  A    between atoms: O_8  and  C_36 
REMARK    5  A    between atoms: O_9  and  C_39 
REMARK    6  A    between atoms: C_43  and  O_10 
REMARK    7  A    between atoms: O_11  and  C_47 
REMARK    8  A    between atoms: O_12  and  C_48 
REMARK    9  A    between atoms: O_13  and  C_52 
REMARK   10  A    between atoms: O_14  and  C_55 
REMARK   11  A    between atoms: O_15  and  C_56 
REMARK   12  A    between atoms: O_16  and  C_58 
REMARK   13  A    between atoms: O_17  and  C_61 
REMARK   14  A    between atoms: O_18  and  C_63 
REMARK   15  A    between atoms: C_21  and  C_32 
REMARK   16  A    between atoms: C_23  and  C_30 
REMARK   17  A    between atoms: C_29  and  C_37 
REMARK   18  A    between atoms: C_42  and  C_54 
ROOT
ATOM      1  O   UNL d   1       9.341   4.460   6.233  0.00  0.00    -0.306 OA
ATOM      2  O   UNL d   1       7.283   2.819   8.488  0.00  0.00    -0.306 OA
ATOM      3  O   UNL d   1       8.703   1.206   5.289  0.00  0.00    -0.337 OA
ATOM      4  C   UNL d   1       8.332   3.042   6.972  0.00  0.00     0.097 A 
ATOM      5  C   UNL d   1       8.493   4.860   7.806  0.00  0.00     0.199 A 
ATOM      6  C   UNL d   1       8.118   3.695   7.699  0.00  0.00     0.231 A 
ATOM      7  C   UNL d   1       9.109   2.952   5.696  0.00  0.00     0.021 A 
ATOM      8  C   UNL d   1       9.906   1.393   3.511  0.00  0.00     0.094 A 
ATOM      9  C   UNL d   1       9.207   2.138   5.054  0.00  0.00     0.089 A 
ATOM     10  C   UNL d   1       9.788   2.228   4.195  0.00  0.00     0.020 A 
ATOM     11  C   UNL d   1       9.411   0.452   3.725  0.00  0.00     0.165 A 
ATOM     12  C   UNL d   1       7.628   1.762   7.313  0.00  0.00     0.020 A 
ATOM     13  C   UNL d   1       9.565   3.819   5.498  0.00  0.00     0.085 A 
ATOM     14  C   UNL d   1       8.805   0.357   4.621  0.00  0.00     0.192 A 
ATOM     15  C   UNL d   1       7.129   1.883   8.170  0.00  0.00     0.085 A 
ATOM     16  C   UNL d   1      10.264   3.132   3.988  0.00  0.00     0.078 A 
ATOM     17  C   UNL d   1      10.151   3.933   4.645  0.00  0.00     0.074 A 
ATOM     18  C   UNL d   1       7.605   0.853   6.804  0.00  0.00     0.078 A 
ATOM     19  C   UNL d   1       6.572   1.104   8.579  0.00  0.00     0.074 A 
ATOM     20  C   UNL d   1       7.055   0.060   7.195  0.00  0.00     0.073 A 
ATOM     21  C   UNL d   1       6.535   0.186   8.088  0.00  0.00     0.071 A 
ENDROOT
BRANCH   8  22
ATOM     22  C   UNL d   1      10.466   1.492   2.688  0.00  0.00     0.020 A 
ATOM     23  C   UNL d   1      11.445   1.290   2.724  0.00  0.00     0.088 A 
ATOM     24  O   UNL d   1      11.867   0.979   3.624  0.00  0.00    -0.337 OA
ATOM     25  C   UNL d   1      12.006   1.388   1.901  0.00  0.00     0.012 A 
ATOM     26  C   UNL d   1      12.885   0.768   3.668  0.00  0.00     0.191 A 
ATOM     27  C   UNL d   1      13.469   0.870   2.812  0.00  0.00     0.156 A 
ATOM     28  C   UNL d   1      13.027   1.182   1.922  0.00  0.00     0.079 A 
ATOM     29  C   UNL d   1      11.588   1.688   1.044  0.00  0.00     0.077 A 
ATOM     30  C   UNL d   1      10.608   1.889   1.009  0.00  0.00     0.074 A 
ATOM     31  C   UNL d   1      10.048   1.791   1.831  0.00  0.00     0.078 A 
BRANCH  26  32
ATOM     32  C   UNL d   1      13.300   0.468   4.528  0.00  0.00    -0.024 A 
ATOM     33  C   UNL d   1      13.714   1.139   5.143  0.00  0.00     0.049 A 
ATOM     34  C   UNL d   1      14.129   0.840   6.003  0.00  0.00     0.099 A 
ATOM     35  C   UNL d   1      14.130  -0.130   6.247  0.00  0.00     0.098 A 
ATOM     36  C   UNL d   1      13.716  -0.801   5.631  0.00  0.00     0.040 A 
ATOM     37  C   UNL d   1      13.302  -0.501   4.772  0.00  0.00     0.013 A 
BRANCH  34  38
ATOM     38  O   UNL d   1      14.543   1.511   6.619  0.00  0.00    -0.358 OA
ATOM     39  H   UNL d   1      14.307   2.083   6.655  0.00  0.00     0.217 HD
ENDBRANCH  34  38
BRANCH  35  40
ATOM     40  O   UNL d   1      14.545  -0.429   7.106  0.00  0.00    -0.358 OA
ATOM     41  H   UNL d   1      14.903  -0.934   7.117  0.00  0.00     0.217 HD
ENDBRANCH  35  40
ENDBRANCH  26  32
BRANCH  27  42
ATOM     42  O   UNL d   1      14.448   0.669   2.844  0.00  0.00    -0.392 OA
ATOM     43  H   UNL d   1      14.680   0.200   2.510  0.00  0.00     0.210 HD
ENDBRANCH  27  42
BRANCH  29  44
ATOM     44  O   UNL d   1      12.148   1.786   0.222  0.00  0.00    -0.360 OA
ATOM     45  H   UNL d   1      11.882   1.770  -0.338  0.00  0.00     0.217 HD
ENDBRANCH  29  44
BRANCH  31  46
ATOM     46  O   UNL d   1       9.350   2.093   1.181  0.00  0.00    -0.360 OA
ATOM     47  H   UNL d   1       9.511   2.444   0.696  0.00  0.00     0.217 HD
ENDBRANCH  31  46
ENDBRANCH   8  22
BRANCH  11  48
ATOM     48  O   UNL d   1       9.513  -0.324   3.102  0.00  0.00    -0.392 OA
ATOM     49  H   UNL d   1       9.417  -0.247   2.495  0.00  0.00     0.210 HD
ENDBRANCH  11  48
BRANCH  16  50
ATOM     50  O   UNL d   1      10.822   3.816   3.519  0.00  0.00    -0.360 OA
ATOM     51  H   UNL d   1      10.552   4.248   3.166  0.00  0.00     0.217 HD
ENDBRANCH  16  50
BRANCH  14  52
ATOM     52  C   UNL d   1       8.345  -0.505   4.828  0.00  0.00    -0.024 A 
ATOM     53  C   UNL d   1       8.828  -1.221   5.335  0.00  0.00     0.049 A 
ATOM     54  C   UNL d   1       8.368  -2.083   5.543  0.00  0.00     0.099 A 
ATOM     55  C   UNL d   1       7.425  -2.232   5.244  0.00  0.00     0.098 A 
ATOM     56  C   UNL d   1       6.942  -1.517   4.738  0.00  0.00     0.040 A 
ATOM     57  C   UNL d   1       7.402  -0.654   4.530  0.00  0.00     0.013 A 
BRANCH  54  58
ATOM     58  O   UNL d   1       8.850  -2.798   6.049  0.00  0.00    -0.358 OA
ATOM     59  H   UNL d   1       8.927  -2.746   6.662  0.00  0.00     0.217 HD
ENDBRANCH  54  58
BRANCH  55  60
ATOM     60  O   UNL d   1       6.965  -3.095   5.452  0.00  0.00    -0.358 OA
ATOM     61  H   UNL d   1       6.472  -3.271   5.120  0.00  0.00     0.217 HD
ENDBRANCH  55  60
ENDBRANCH  14  52
BRANCH   5  62
ATOM     62  O   UNL d   1       8.735   5.812   7.995  0.00  0.00    -0.389 OA
ATOM     63  H   UNL d   1       9.309   6.015   7.877  0.00  0.00     0.210 HD
ENDBRANCH   5  62
BRANCH   6  64
ATOM     64  C   UNL d   1       7.904   4.348   8.425  0.00  0.00     0.010 A 
ATOM     65  C   UNL d   1       8.295   4.227   9.338  0.00  0.00     0.052 A 
ATOM     66  C   UNL d   1       8.081   4.880  10.064  0.00  0.00     0.099 A 
ATOM     67  C   UNL d   1       7.476   5.654   9.878  0.00  0.00     0.098 A 
ATOM     68  C   UNL d   1       7.085   5.775   8.965  0.00  0.00     0.040 A 
ATOM     69  C   UNL d   1       7.299   5.122   8.239  0.00  0.00     0.015 A 
BRANCH  66  70
ATOM     70  O   UNL d   1       8.472   4.759  10.976  0.00  0.00    -0.358 OA
ATOM     71  H   UNL d   1       8.157   4.946  11.476  0.00  0.00     0.217 HD
ENDBRANCH  66  70
BRANCH  67  72
ATOM     72  O   UNL d   1       7.262   6.307  10.604  0.00  0.00    -0.358 OA
ATOM     73  H   UNL d   1       6.677   6.488  10.696  0.00  0.00     0.217 HD
ENDBRANCH  67  72
ENDBRANCH   6  64
BRANCH  18  74
ATOM     74  O   UNL d   1       8.109   0.743   5.947  0.00  0.00    -0.360 OA
ATOM     75  H   UNL d   1       8.431   0.224   5.841  0.00  0.00     0.217 HD
ENDBRANCH  18  74
BRANCH  21  76
ATOM     76  O   UNL d   1       6.003  -0.570   8.472  0.00  0.00    -0.361 OA
ATOM     77  H   UNL d   1       5.417  -0.659   8.292  0.00  0.00     0.217 HD
ENDBRANCH  21  76
TORSDOF 18
ENDMDL
