MODEL 1
REMARK VINA RESULT:    -7.092      0.000      0.000
REMARK INTER + INTRA:          -6.611
REMARK INTER:                  -8.444
REMARK INTRA:                   1.833
REMARK UNBOUND:                 1.932
REMARK  5 active torsions:
REMARK  status: ('A' for Active; 'I' for Inactive)
REMARK    1  A    between atoms: O_2  and  C_13 
REMARK    2  A    between atoms: O_3  and  C_19 
REMARK    3  A    between atoms: O_5  and  C_17 
REMARK    4  A    between atoms: O_6  and  C_21 
REMARK    5  A    between atoms: C_8  and  C_10 
ROOT
ATOM      1  O   UNL d   1       0.886  -7.124   3.735  0.00  0.00    -0.309 OA
ATOM      2  O   UNL d   1       1.011  -6.095   0.920  0.00  0.00    -0.287 OA
ATOM      3  C   UNL d   1       1.693  -7.034   2.206  0.00  0.00     0.081 A 
ATOM      4  C   UNL d   1       0.162  -6.528   3.388  0.00  0.00     0.090 A 
ATOM      5  C   UNL d   1       1.651  -7.377   3.144  0.00  0.00     0.095 A 
ATOM      6  C   UNL d   1       0.970  -6.438   1.858  0.00  0.00     0.190 A 
ATOM      7  C   UNL d   1       0.204  -6.185   2.449  0.00  0.00     0.094 A 
ATOM      8  C   UNL d   1       2.485  -7.289   1.579  0.00  0.00     0.085 A 
ATOM      9  C   UNL d   1       2.398  -7.999   3.520  0.00  0.00     0.075 A 
ATOM     10  C   UNL d   1       3.199  -8.267   2.910  0.00  0.00     0.071 A 
ATOM     11  C   UNL d   1       3.242  -7.910   1.934  0.00  0.00     0.074 A 
ENDROOT
BRANCH   4  12
ATOM     12  C   UNL d   1      -0.604  -6.274   3.979  0.00  0.00     0.001 A 
ATOM     13  C   UNL d   1      -1.374  -6.901   4.095  0.00  0.00     0.054 A 
ATOM     14  C   UNL d   1      -2.140  -6.648   4.687  0.00  0.00     0.102 A 
ATOM     15  C   UNL d   1      -2.136  -5.768   5.161  0.00  0.00     0.099 A 
ATOM     16  C   UNL d   1      -1.365  -5.141   5.044  0.00  0.00     0.040 A 
ATOM     17  C   UNL d   1      -0.600  -5.394   4.453  0.00  0.00     0.017 A 
BRANCH  14  18
ATOM     18  O   UNL d   1      -2.910  -7.275   4.803  0.00  0.00    -0.353 OA
ATOM     19  C   UNL d   1      -2.848  -8.213   4.462  0.00  0.00     0.210 C 
ENDBRANCH  14  18
BRANCH  15  20
ATOM     20  O   UNL d   1      -2.901  -5.515   5.752  0.00  0.00    -0.358 OA
ATOM     21  H   UNL d   1      -3.394  -5.889   5.799  0.00  0.00     0.217 HD
ENDBRANCH  15  20
ENDBRANCH   4  12
BRANCH   8  22
ATOM     22  O   UNL d   1       2.516  -6.941   0.642  0.00  0.00    -0.360 OA
ATOM     23  H   UNL d   1       2.390  -6.345   0.529  0.00  0.00     0.217 HD
ENDBRANCH   8  22
BRANCH  10  24
ATOM     24  O   UNL d   1       3.921  -8.863   3.262  0.00  0.00    -0.361 OA
ATOM     25  H   UNL d   1       3.970  -9.445   3.054  0.00  0.00     0.217 HD
ENDBRANCH  10  24
TORSDOF 5
ENDMDL
MODEL 2
REMARK VINA RESULT:    -7.068     12.603     13.683
REMARK INTER + INTRA:          -6.581
REMARK INTER:                  -8.509
REMARK INTRA:                   1.928
REMARK UNBOUND:                 1.932
REMARK  5 active torsions:
REMARK  status: ('A' for Active; 'I' for Inactive)
REMARK    1  A    between atoms: O_2  and  C_13 
REMARK    2  A    between atoms: O_3  and  C_19 
REMARK    3  A    between atoms: O_5  and  C_17 
REMARK    4  A    between atoms: O_6  and  C_21 
REMARK    5  A    between atoms: C_8  and  C_10 
ROOT
ATOM      1  O   UNL d   1       6.726   3.271   7.350  0.00  0.00    -0.309 OA
ATOM      2  O   UNL d   1       8.609   0.938   7.250  0.00  0.00    -0.287 OA
ATOM      3  C   UNL d   1       6.994   1.561   7.296  0.00  0.00     0.081 A 
ATOM      4  C   UNL d   1       7.714   3.426   7.338  0.00  0.00     0.090 A 
ATOM      5  C   UNL d   1       6.366   2.339   7.329  0.00  0.00     0.095 A 
ATOM      6  C   UNL d   1       7.982   1.716   7.283  0.00  0.00     0.190 A 
ATOM      7  C   UNL d   1       8.342   2.648   7.304  0.00  0.00     0.094 A 
ATOM      8  C   UNL d   1       6.633   0.584   7.273  0.00  0.00     0.085 A 
ATOM      9  C   UNL d   1       5.334   2.193   7.343  0.00  0.00     0.075 A 
ATOM     10  C   UNL d   1       4.952   1.225   7.321  0.00  0.00     0.071 A 
ATOM     11  C   UNL d   1       5.605   0.415   7.286  0.00  0.00     0.074 A 
ENDROOT
BRANCH   4  12
ATOM     12  C   UNL d   1       8.074   4.359   7.359  0.00  0.00     0.001 A 
ATOM     13  C   UNL d   1       8.447   4.769   6.527  0.00  0.00     0.054 A 
ATOM     14  C   UNL d   1       8.808   5.702   6.548  0.00  0.00     0.102 A 
ATOM     15  C   UNL d   1       8.795   6.224   7.400  0.00  0.00     0.099 A 
ATOM     16  C   UNL d   1       8.422   5.813   8.232  0.00  0.00     0.040 A 
ATOM     17  C   UNL d   1       8.062   4.880   8.212  0.00  0.00     0.017 A 
BRANCH  14  18
ATOM     18  O   UNL d   1       9.180   6.113   5.716  0.00  0.00    -0.353 OA
ATOM     19  C   UNL d   1       9.773   5.576   5.115  0.00  0.00     0.210 C 
ENDBRANCH  14  18
BRANCH  15  20
ATOM     20  O   UNL d   1       9.155   7.156   7.421  0.00  0.00    -0.358 OA
ATOM     21  H   UNL d   1       9.205   7.481   6.896  0.00  0.00     0.217 HD
ENDBRANCH  15  20
ENDBRANCH   4  12
BRANCH   8  22
ATOM     22  O   UNL d   1       7.270  -0.186   7.240  0.00  0.00    -0.360 OA
ATOM     23  H   UNL d   1       7.103  -0.736   7.471  0.00  0.00     0.217 HD
ENDBRANCH   8  22
BRANCH  10  24
ATOM     24  O   UNL d   1       3.963   1.074   7.334  0.00  0.00    -0.361 OA
ATOM     25  H   UNL d   1       3.686   0.879   7.853  0.00  0.00     0.217 HD
ENDBRANCH  10  24
TORSDOF 5
ENDMDL
MODEL 3
REMARK VINA RESULT:    -6.959     14.426     15.467
REMARK INTER + INTRA:          -6.450
REMARK INTER:                  -8.309
REMARK INTRA:                   1.860
REMARK UNBOUND:                 1.932
REMARK  5 active torsions:
REMARK  status: ('A' for Active; 'I' for Inactive)
REMARK    1  A    between atoms: O_2  and  C_13 
REMARK    2  A    between atoms: O_3  and  C_19 
REMARK    3  A    between atoms: O_5  and  C_17 
REMARK    4  A    between atoms: O_6  and  C_21 
REMARK    5  A    between atoms: C_8  and  C_10 
ROOT
ATOM      1  O   UNL d   1       7.460   5.182   9.807  0.00  0.00    -0.309 OA
ATOM      2  O   UNL d   1       9.224   5.793   7.459  0.00  0.00    -0.287 OA
ATOM      3  C   UNL d   1       8.085   6.314   8.654  0.00  0.00     0.081 A 
ATOM      4  C   UNL d   1       8.011   4.457   9.393  0.00  0.00     0.090 A 
ATOM      5  C   UNL d   1       7.497   6.110   9.437  0.00  0.00     0.095 A 
ATOM      6  C   UNL d   1       8.636   5.589   8.241  0.00  0.00     0.190 A 
ATOM      7  C   UNL d   1       8.599   4.660   8.611  0.00  0.00     0.094 A 
ATOM      8  C   UNL d   1       8.133   7.276   8.259  0.00  0.00     0.085 A 
ATOM      9  C   UNL d   1       6.916   6.854   9.878  0.00  0.00     0.075 A 
ATOM     10  C   UNL d   1       6.950   7.824   9.499  0.00  0.00     0.071 A 
ATOM     11  C   UNL d   1       7.562   8.036   8.684  0.00  0.00     0.074 A 
ENDROOT
BRANCH   4  12
ATOM     12  C   UNL d   1       7.974   3.528   9.763  0.00  0.00     0.001 A 
ATOM     13  C   UNL d   1       7.541   2.797   9.236  0.00  0.00     0.054 A 
ATOM     14  C   UNL d   1       7.505   1.869   9.605  0.00  0.00     0.102 A 
ATOM     15  C   UNL d   1       7.900   1.671  10.502  0.00  0.00     0.099 A 
ATOM     16  C   UNL d   1       8.333   2.403  11.029  0.00  0.00     0.040 A 
ATOM     17  C   UNL d   1       8.370   3.331  10.660  0.00  0.00     0.017 A 
BRANCH  14  18
ATOM     18  O   UNL d   1       7.072   1.137   9.078  0.00  0.00    -0.353 OA
ATOM     19  C   UNL d   1       6.581   1.353   8.233  0.00  0.00     0.210 C 
ENDBRANCH  14  18
BRANCH  15  20
ATOM     20  O   UNL d   1       7.864   0.743  10.872  0.00  0.00    -0.358 OA
ATOM     21  H   UNL d   1       8.290   0.325  10.704  0.00  0.00     0.217 HD
ENDBRANCH  15  20
ENDBRANCH   4  12
BRANCH   8  22
ATOM     22  O   UNL d   1       8.725   7.468   7.476  0.00  0.00    -0.360 OA
ATOM     23  H   UNL d   1       9.295   7.227   7.452  0.00  0.00     0.217 HD
ENDBRANCH   8  22
BRANCH  10  24
ATOM     24  O   UNL d   1       6.396   8.546   9.915  0.00  0.00    -0.361 OA
ATOM     25  H   UNL d   1       5.902   8.769   9.615  0.00  0.00     0.217 HD
ENDBRANCH  10  24
TORSDOF 5
ENDMDL
MODEL 4
REMARK VINA RESULT:    -6.866      1.781      2.264
REMARK INTER + INTRA:          -6.339
REMARK INTER:                  -8.377
REMARK INTRA:                   2.038
REMARK UNBOUND:                 1.932
REMARK  5 active torsions:
REMARK  status: ('A' for Active; 'I' for Inactive)
REMARK    1  A    between atoms: O_2  and  C_13 
REMARK    2  A    between atoms: O_3  and  C_19 
REMARK    3  A    between atoms: O_5  and  C_17 
REMARK    4  A    between atoms: O_6  and  C_21 
REMARK    5  A    between atoms: C_8  and  C_10 
ROOT
ATOM      1  O   UNL d   1       0.356  -8.464   2.699  0.00  0.00    -0.309 OA
ATOM      2  O   UNL d   1       0.683  -5.512   2.276  0.00  0.00    -0.287 OA
ATOM      3  C   UNL d   1       1.187  -7.138   1.958  0.00  0.00     0.081 A 
ATOM      4  C   UNL d   1      -0.258  -7.822   3.159  0.00  0.00     0.090 A 
ATOM      5  C   UNL d   1       1.078  -8.122   2.098  0.00  0.00     0.095 A 
ATOM      6  C   UNL d   1       0.574  -6.496   2.417  0.00  0.00     0.190 A 
ATOM      7  C   UNL d   1      -0.149  -6.838   3.018  0.00  0.00     0.094 A 
ATOM      8  C   UNL d   1       1.935  -6.768   1.335  0.00  0.00     0.085 A 
ATOM      9  C   UNL d   1       1.710  -8.804   1.627  0.00  0.00     0.075 A 
ATOM     10  C   UNL d   1       2.465  -8.455   0.999  0.00  0.00     0.071 A 
ATOM     11  C   UNL d   1       2.578  -7.430   0.853  0.00  0.00     0.074 A 
ENDROOT
BRANCH   4  12
ATOM     12  C   UNL d   1      -0.980  -8.164   3.760  0.00  0.00     0.001 A 
ATOM     13  C   UNL d   1      -0.781  -8.888   4.420  0.00  0.00     0.054 A 
ATOM     14  C   UNL d   1      -1.503  -9.230   5.021  0.00  0.00     0.102 A 
ATOM     15  C   UNL d   1      -2.426  -8.848   4.961  0.00  0.00     0.099 A 
ATOM     16  C   UNL d   1      -2.625  -8.125   4.300  0.00  0.00     0.040 A 
ATOM     17  C   UNL d   1      -1.903  -7.783   3.700  0.00  0.00     0.017 A 
BRANCH  14  18
ATOM     18  O   UNL d   1      -1.304  -9.954   5.681  0.00  0.00    -0.353 OA
ATOM     19  C   UNL d   1      -0.425 -10.430   5.651  0.00  0.00     0.210 C 
ENDBRANCH  14  18
BRANCH  15  20
ATOM     20  O   UNL d   1      -3.148  -9.190   5.562  0.00  0.00    -0.358 OA
ATOM     21  H   UNL d   1      -3.016  -9.611   5.997  0.00  0.00     0.217 HD
ENDBRANCH  15  20
ENDBRANCH   4  12
BRANCH   8  22
ATOM     22  O   UNL d   1       2.035  -5.782   1.201  0.00  0.00    -0.360 OA
ATOM     23  H   UNL d   1       2.591  -5.542   1.071  0.00  0.00     0.217 HD
ENDBRANCH   8  22
BRANCH  10  24
ATOM     24  O   UNL d   1       3.076  -9.100   0.541  0.00  0.00    -0.361 OA
ATOM     25  H   UNL d   1       3.619  -9.249   0.801  0.00  0.00     0.217 HD
ENDBRANCH  10  24
TORSDOF 5
ENDMDL
MODEL 5
REMARK VINA RESULT:    -6.818     14.121     15.190
REMARK INTER + INTRA:          -6.281
REMARK INTER:                  -8.183
REMARK INTRA:                   1.902
REMARK UNBOUND:                 1.932
REMARK  5 active torsions:
REMARK  status: ('A' for Active; 'I' for Inactive)
REMARK    1  A    between atoms: O_2  and  C_13 
REMARK    2  A    between atoms: O_3  and  C_19 
REMARK    3  A    between atoms: O_5  and  C_17 
REMARK    4  A    between atoms: O_6  and  C_21 
REMARK    5  A    between atoms: C_8  and  C_10 
ROOT
ATOM      1  O   UNL d   1       7.639   3.997   8.272  0.00  0.00    -0.309 OA
ATOM      2  O   UNL d   1       8.250   3.197  11.099  0.00  0.00    -0.287 OA
ATOM      3  C   UNL d   1       7.675   2.791   9.516  0.00  0.00     0.081 A 
ATOM      4  C   UNL d   1       8.011   4.669   8.913  0.00  0.00     0.090 A 
ATOM      5  C   UNL d   1       7.471   3.058   8.574  0.00  0.00     0.095 A 
ATOM      6  C   UNL d   1       8.046   3.463  10.156  0.00  0.00     0.190 A 
ATOM      7  C   UNL d   1       8.214   4.402   9.855  0.00  0.00     0.094 A 
ATOM      8  C   UNL d   1       7.505   1.818   9.844  0.00  0.00     0.085 A 
ATOM      9  C   UNL d   1       7.084   2.370   7.895  0.00  0.00     0.075 A 
ATOM     10  C   UNL d   1       6.906   1.390   8.201  0.00  0.00     0.071 A 
ATOM     11  C   UNL d   1       7.118   1.112   9.182  0.00  0.00     0.074 A 
ENDROOT
BRANCH   4  12
ATOM     12  C   UNL d   1       8.179   5.607   8.612  0.00  0.00     0.001 A 
ATOM     13  C   UNL d   1       8.874   5.792   7.917  0.00  0.00     0.054 A 
ATOM     14  C   UNL d   1       9.042   6.731   7.615  0.00  0.00     0.102 A 
ATOM     15  C   UNL d   1       8.515   7.484   8.009  0.00  0.00     0.099 A 
ATOM     16  C   UNL d   1       7.820   7.299   8.704  0.00  0.00     0.040 A 
ATOM     17  C   UNL d   1       7.652   6.360   9.005  0.00  0.00     0.017 A 
BRANCH  14  18
ATOM     18  O   UNL d   1       9.737   6.916   6.920  0.00  0.00    -0.353 OA
ATOM     19  C   UNL d   1      10.298   6.169   6.563  0.00  0.00     0.210 C 
ENDBRANCH  14  18
BRANCH  15  20
ATOM     20  O   UNL d   1       8.683   8.423   7.707  0.00  0.00    -0.358 OA
ATOM     21  H   UNL d   1       9.261   8.648   7.704  0.00  0.00     0.217 HD
ENDBRANCH  15  20
ENDBRANCH   4  12
BRANCH   8  22
ATOM     22  O   UNL d   1       7.712   1.562  10.788  0.00  0.00    -0.360 OA
ATOM     23  H   UNL d   1       8.190   1.188  10.910  0.00  0.00     0.217 HD
ENDBRANCH   8  22
BRANCH  10  24
ATOM     24  O   UNL d   1       6.534   0.721   7.557  0.00  0.00    -0.361 OA
ATOM     25  H   UNL d   1       6.269   0.202   7.769  0.00  0.00     0.217 HD
ENDBRANCH  10  24
TORSDOF 5
ENDMDL
