MODEL 1
REMARK VINA RESULT:    -8.889      0.000      0.000
REMARK INTER + INTRA:          -2.768
REMARK INTER:                 -12.730
REMARK INTRA:                   9.962
REMARK UNBOUND:                10.019
REMARK  11 active torsions:
REMARK  status: ('A' for Active; 'I' for Inactive)
REMARK    1  A    between atoms: C_14  and  O_3 
REMARK    2  A    between atoms: O_5  and  C_20 
REMARK    3  A    between atoms: C_26  and  O_6 
REMARK    4  A    between atoms: O_7  and  C_28 
REMARK    5  A    between atoms: O_8  and  C_33 
REMARK    6  A    between atoms: O_9  and  C_35 
REMARK    7  A    between atoms: O_10  and  C_37 
REMARK    8  A    between atoms: O_11  and  C_40 
REMARK    9  A    between atoms: O_12  and  C_42 
REMARK   10  A    between atoms: C_15  and  C_21 
REMARK   11  A    between atoms: C_27  and  C_34 
ROOT
ATOM      1  O   UNL d   1       7.368   4.725   9.058  0.00  0.00    -0.306 OA
ATOM      2  O   UNL d   1       8.933   3.197   6.369  0.00  0.00    -0.306 OA
ATOM      3  O   UNL d   1       7.195   8.292   9.994  0.00  0.00    -0.338 OA
ATOM      4  C   UNL d   1       8.386   4.588   7.471  0.00  0.00     0.097 A 
ATOM      5  C   UNL d   1       7.574   3.020   8.422  0.00  0.00     0.199 A 
ATOM      6  C   UNL d   1       8.212   3.606   7.553  0.00  0.00     0.231 A 
ATOM      7  C   UNL d   1       8.085   5.874   8.174  0.00  0.00     0.021 A 
ATOM      8  C   UNL d   1       9.214   4.785   6.236  0.00  0.00     0.020 A 
ATOM      9  C   UNL d   1       7.532   5.709   8.991  0.00  0.00     0.085 A 
ATOM     10  C   UNL d   1       9.382   3.896   5.811  0.00  0.00     0.085 A 
ATOM     11  C   UNL d   1       8.375   6.839   7.911  0.00  0.00     0.084 A 
ATOM     12  C   UNL d   1       8.085   7.643   8.507  0.00  0.00     0.012 A 
ATOM     13  C   UNL d   1       8.386   8.649   8.234  0.00  0.00     0.079 A 
ATOM     14  C   UNL d   1       7.509   7.471   9.359  0.00  0.00     0.081 A 
ATOM     15  C   UNL d   1       7.231   6.497   9.602  0.00  0.00     0.075 A 
ATOM     16  C   UNL d   1       8.084   9.487   8.855  0.00  0.00     0.156 A 
ATOM     17  C   UNL d   1       7.485   9.307   9.741  0.00  0.00     0.191 A 
ATOM     18  C   UNL d   1       9.595   5.659   5.816  0.00  0.00     0.078 A 
ATOM     19  C   UNL d   1       9.942   3.818   4.937  0.00  0.00     0.074 A 
ATOM     20  C   UNL d   1      10.159   5.605   4.941  0.00  0.00     0.073 A 
ATOM     21  C   UNL d   1      10.333   4.678   4.499  0.00  0.00     0.071 A 
ENDROOT
BRANCH   6  22
ATOM     22  C   UNL d   1       8.038   2.625   7.634  0.00  0.00     0.010 A 
ATOM     23  C   UNL d   1       8.720   2.031   8.062  0.00  0.00     0.052 A 
ATOM     24  C   UNL d   1       8.546   1.050   8.144  0.00  0.00     0.099 A 
ATOM     25  C   UNL d   1       7.691   0.663   7.798  0.00  0.00     0.098 A 
ATOM     26  C   UNL d   1       7.010   1.257   7.371  0.00  0.00     0.040 A 
ATOM     27  C   UNL d   1       7.184   2.238   7.289  0.00  0.00     0.015 A 
BRANCH  24  28
ATOM     28  O   UNL d   1       9.227   0.455   8.571  0.00  0.00    -0.358 OA
ATOM     29  H   UNL d   1       9.749   0.313   8.268  0.00  0.00     0.217 HD
ENDBRANCH  24  28
BRANCH  25  30
ATOM     30  O   UNL d   1       7.517  -0.318   7.880  0.00  0.00    -0.358 OA
ATOM     31  H   UNL d   1       7.361  -0.649   7.379  0.00  0.00     0.217 HD
ENDBRANCH  25  30
ENDBRANCH   6  22
BRANCH   5  32
ATOM     32  O   UNL d   1       7.080   2.441   9.071  0.00  0.00    -0.389 OA
ATOM     33  H   UNL d   1       6.828   1.908   8.881  0.00  0.00     0.210 HD
ENDBRANCH   5  32
BRANCH  11  34
ATOM     34  O   UNL d   1       8.927   6.994   7.092  0.00  0.00    -0.359 OA
ATOM     35  H   UNL d   1       9.151   6.512   6.773  0.00  0.00     0.217 HD
ENDBRANCH  11  34
BRANCH  18  36
ATOM     36  O   UNL d   1       9.421   6.543   6.249  0.00  0.00    -0.360 OA
ATOM     37  H   UNL d   1       9.887   6.944   6.333  0.00  0.00     0.217 HD
ENDBRANCH  18  36
BRANCH  21  38
ATOM     38  O   UNL d   1      10.873   4.615   3.659  0.00  0.00    -0.361 OA
ATOM     39  H   UNL d   1      11.433   4.351   3.670  0.00  0.00     0.217 HD
ENDBRANCH  21  38
BRANCH  17  40
ATOM     40  C   UNL d   1       7.201  10.071  10.320  0.00  0.00    -0.024 A 
ATOM     41  C   UNL d   1       7.790  10.376  11.068  0.00  0.00     0.049 A 
ATOM     42  C   UNL d   1       7.506  11.140  11.648  0.00  0.00     0.099 A 
ATOM     43  C   UNL d   1       6.634  11.598  11.478  0.00  0.00     0.098 A 
ATOM     44  C   UNL d   1       6.045  11.294  10.730  0.00  0.00     0.040 A 
ATOM     45  C   UNL d   1       6.329  10.529  10.150  0.00  0.00     0.013 A 
BRANCH  42  46
ATOM     46  O   UNL d   1       8.094  11.446  12.397  0.00  0.00    -0.358 OA
ATOM     47  H   UNL d   1       7.897  11.886  12.785  0.00  0.00     0.217 HD
ENDBRANCH  42  46
BRANCH  43  48
ATOM     48  O   UNL d   1       6.350  12.363  12.058  0.00  0.00    -0.358 OA
ATOM     49  H   UNL d   1       6.737  12.588  12.487  0.00  0.00     0.217 HD
ENDBRANCH  43  48
ENDBRANCH  17  40
BRANCH  16  50
ATOM     50  O   UNL d   1       8.357  10.417   8.611  0.00  0.00    -0.392 OA
ATOM     51  H   UNL d   1       8.018  10.900   8.801  0.00  0.00     0.210 HD
ENDBRANCH  16  50
TORSDOF 11
ENDMDL
MODEL 2
REMARK VINA RESULT:    -8.559      1.459      3.796
REMARK INTER + INTRA:          -2.294
REMARK INTER:                 -12.270
REMARK INTRA:                   9.976
REMARK UNBOUND:                10.019
REMARK  11 active torsions:
REMARK  status: ('A' for Active; 'I' for Inactive)
REMARK    1  A    between atoms: C_14  and  O_3 
REMARK    2  A    between atoms: O_5  and  C_20 
REMARK    3  A    between atoms: C_26  and  O_6 
REMARK    4  A    between atoms: O_7  and  C_28 
REMARK    5  A    between atoms: O_8  and  C_33 
REMARK    6  A    between atoms: O_9  and  C_35 
REMARK    7  A    between atoms: O_10  and  C_37 
REMARK    8  A    between atoms: O_11  and  C_40 
REMARK    9  A    between atoms: O_12  and  C_42 
REMARK   10  A    between atoms: C_15  and  C_21 
REMARK   11  A    between atoms: C_27  and  C_34 
ROOT
ATOM      1  O   UNL d   1       9.411   4.933   5.998  0.00  0.00    -0.306 OA
ATOM      2  O   UNL d   1       8.636   1.557   6.120  0.00  0.00    -0.306 OA
ATOM      3  O   UNL d   1       8.312   7.704   8.176  0.00  0.00    -0.338 OA
ATOM      4  C   UNL d   1       8.609   3.342   6.630  0.00  0.00     0.097 A 
ATOM      5  C   UNL d   1       9.834   3.428   5.044  0.00  0.00     0.199 A 
ATOM      6  C   UNL d   1       9.096   2.905   5.874  0.00  0.00     0.231 A 
ATOM      7  C   UNL d   1       8.411   4.692   7.246  0.00  0.00     0.021 A 
ATOM      8  C   UNL d   1       7.848   2.265   7.343  0.00  0.00     0.020 A 
ATOM      9  C   UNL d   1       8.931   5.387   6.749  0.00  0.00     0.085 A 
ATOM     10  C   UNL d   1       8.017   1.391   6.889  0.00  0.00     0.085 A 
ATOM     11  C   UNL d   1       7.833   4.947   8.074  0.00  0.00     0.084 A 
ATOM     12  C   UNL d   1       7.795   5.941   8.387  0.00  0.00     0.012 A 
ATOM     13  C   UNL d   1       7.192   6.207   9.248  0.00  0.00     0.079 A 
ATOM     14  C   UNL d   1       8.336   6.664   7.868  0.00  0.00     0.081 A 
ATOM     15  C   UNL d   1       8.908   6.385   7.044  0.00  0.00     0.075 A 
ATOM     16  C   UNL d   1       7.152   7.242   9.575  0.00  0.00     0.156 A 
ATOM     17  C   UNL d   1       7.716   7.995   9.035  0.00  0.00     0.191 A 
ATOM     18  C   UNL d   1       7.225   2.322   8.176  0.00  0.00     0.078 A 
ATOM     19  C   UNL d   1       7.576   0.513   7.235  0.00  0.00     0.074 A 
ATOM     20  C   UNL d   1       6.773   1.456   8.540  0.00  0.00     0.073 A 
ATOM     21  C   UNL d   1       6.950   0.546   8.066  0.00  0.00     0.071 A 
ENDROOT
BRANCH   6  22
ATOM     22  C   UNL d   1       9.584   2.467   5.118  0.00  0.00     0.010 A 
ATOM     23  C   UNL d   1       9.116   2.306   4.249  0.00  0.00     0.052 A 
ATOM     24  C   UNL d   1       9.603   1.868   3.494  0.00  0.00     0.099 A 
ATOM     25  C   UNL d   1      10.558   1.592   3.607  0.00  0.00     0.098 A 
ATOM     26  C   UNL d   1      11.025   1.754   4.477  0.00  0.00     0.040 A 
ATOM     27  C   UNL d   1      10.538   2.191   5.232  0.00  0.00     0.015 A 
BRANCH  24  28
ATOM     28  O   UNL d   1       9.137   1.706   2.624  0.00  0.00    -0.358 OA
ATOM     29  H   UNL d   1       8.653   2.059   2.462  0.00  0.00     0.217 HD
ENDBRANCH  24  28
BRANCH  25  30
ATOM     30  O   UNL d   1      11.046   1.155   2.852  0.00  0.00    -0.358 OA
ATOM     31  H   UNL d   1      11.186   0.551   2.881  0.00  0.00     0.217 HD
ENDBRANCH  25  30
ENDBRANCH   6  22
BRANCH   5  32
ATOM     32  O   UNL d   1      10.449   3.745   4.322  0.00  0.00    -0.389 OA
ATOM     33  H   UNL d   1      10.463   4.344   4.168  0.00  0.00     0.210 HD
ENDBRANCH   5  32
BRANCH  11  34
ATOM     34  O   UNL d   1       7.317   4.245   8.565  0.00  0.00    -0.359 OA
ATOM     35  H   UNL d   1       6.807   4.000   8.311  0.00  0.00     0.217 HD
ENDBRANCH  11  34
BRANCH  18  36
ATOM     36  O   UNL d   1       7.062   3.201   8.623  0.00  0.00    -0.360 OA
ATOM     37  H   UNL d   1       7.455   3.406   9.057  0.00  0.00     0.217 HD
ENDBRANCH  18  36
BRANCH  21  38
ATOM     38  O   UNL d   1       6.521  -0.291   8.407  0.00  0.00    -0.361 OA
ATOM     39  H   UNL d   1       6.162  -0.629   8.033  0.00  0.00     0.217 HD
ENDBRANCH  21  38
BRANCH  17  40
ATOM     40  C   UNL d   1       7.686   8.951   9.327  0.00  0.00    -0.024 A 
ATOM     41  C   UNL d   1       8.300   9.272  10.047  0.00  0.00     0.049 A 
ATOM     42  C   UNL d   1       8.271  10.229  10.339  0.00  0.00     0.099 A 
ATOM     43  C   UNL d   1       7.628  10.862   9.910  0.00  0.00     0.098 A 
ATOM     44  C   UNL d   1       7.014  10.541   9.190  0.00  0.00     0.040 A 
ATOM     45  C   UNL d   1       7.043   9.585   8.898  0.00  0.00     0.013 A 
BRANCH  42  46
ATOM     46  O   UNL d   1       8.885  10.551  11.060  0.00  0.00    -0.358 OA
ATOM     47  H   UNL d   1       9.045  10.172  11.523  0.00  0.00     0.217 HD
ENDBRANCH  42  46
BRANCH  43  48
ATOM     48  O   UNL d   1       7.598  11.819  10.202  0.00  0.00    -0.358 OA
ATOM     49  H   UNL d   1       7.997  12.229   9.962  0.00  0.00     0.217 HD
ENDBRANCH  43  48
ENDBRANCH  17  40
BRANCH  16  50
ATOM     50  O   UNL d   1       6.600   7.498  10.368  0.00  0.00    -0.392 OA
ATOM     51  H   UNL d   1       6.087   7.178  10.505  0.00  0.00     0.210 HD
ENDBRANCH  16  50
TORSDOF 11
ENDMDL
MODEL 3
REMARK VINA RESULT:    -8.528      4.654      8.292
REMARK INTER + INTRA:          -2.248
REMARK INTER:                 -12.323
REMARK INTRA:                  10.075
REMARK UNBOUND:                10.019
REMARK  11 active torsions:
REMARK  status: ('A' for Active; 'I' for Inactive)
REMARK    1  A    between atoms: C_14  and  O_3 
REMARK    2  A    between atoms: O_5  and  C_20 
REMARK    3  A    between atoms: C_26  and  O_6 
REMARK    4  A    between atoms: O_7  and  C_28 
REMARK    5  A    between atoms: O_8  and  C_33 
REMARK    6  A    between atoms: O_9  and  C_35 
REMARK    7  A    between atoms: O_10  and  C_37 
REMARK    8  A    between atoms: O_11  and  C_40 
REMARK    9  A    between atoms: O_12  and  C_42 
REMARK   10  A    between atoms: C_15  and  C_21 
REMARK   11  A    between atoms: C_27  and  C_34 
ROOT
ATOM      1  O   UNL d   1       9.575   3.105   6.412  0.00  0.00    -0.306 OA
ATOM      2  O   UNL d   1       7.568   0.694   7.887  0.00  0.00    -0.306 OA
ATOM      3  O   UNL d   1      10.736   3.420   2.922  0.00  0.00    -0.338 OA
ATOM      4  C   UNL d   1       8.507   1.550   6.533  0.00  0.00     0.097 A 
ATOM      5  C   UNL d   1       8.895   2.767   8.079  0.00  0.00     0.199 A 
ATOM      6  C   UNL d   1       8.411   1.801   7.496  0.00  0.00     0.231 A 
ATOM      7  C   UNL d   1       9.167   2.027   5.277  0.00  0.00     0.021 A 
ATOM      8  C   UNL d   1       7.723   0.287   6.329  0.00  0.00     0.020 A 
ATOM      9  C   UNL d   1       9.681   2.868   5.446  0.00  0.00     0.085 A 
ATOM     10  C   UNL d   1       7.307   0.018   7.197  0.00  0.00     0.085 A 
ATOM     11  C   UNL d   1       9.141   1.599   4.328  0.00  0.00     0.084 A 
ATOM     12  C   UNL d   1       9.657   2.053   3.545  0.00  0.00     0.012 A 
ATOM     13  C   UNL d   1       9.629   1.607   2.557  0.00  0.00     0.079 A 
ATOM     14  C   UNL d   1      10.192   2.929   3.722  0.00  0.00     0.081 A 
ATOM     15  C   UNL d   1      10.204   3.340   4.679  0.00  0.00     0.075 A 
ATOM     16  C   UNL d   1      10.167   2.079   1.740  0.00  0.00     0.156 A 
ATOM     17  C   UNL d   1      10.724   2.992   1.924  0.00  0.00     0.191 A 
ATOM     18  C   UNL d   1       7.579  -0.282   5.468  0.00  0.00     0.078 A 
ATOM     19  C   UNL d   1       6.719  -0.838   7.266  0.00  0.00     0.074 A 
ATOM     20  C   UNL d   1       6.994  -1.143   5.514  0.00  0.00     0.073 A 
ATOM     21  C   UNL d   1       6.561  -1.422   6.419  0.00  0.00     0.071 A 
ENDROOT
BRANCH   6  22
ATOM     22  C   UNL d   1       8.316   2.052   8.459  0.00  0.00     0.010 A 
ATOM     23  C   UNL d   1       8.838   1.562   9.157  0.00  0.00     0.052 A 
ATOM     24  C   UNL d   1       8.743   1.813  10.121  0.00  0.00     0.099 A 
ATOM     25  C   UNL d   1       8.125   2.554  10.385  0.00  0.00     0.098 A 
ATOM     26  C   UNL d   1       7.603   3.043   9.686  0.00  0.00     0.040 A 
ATOM     27  C   UNL d   1       7.698   2.792   8.724  0.00  0.00     0.015 A 
BRANCH  24  28
ATOM     28  O   UNL d   1       9.265   1.324  10.819  0.00  0.00    -0.358 OA
ATOM     29  H   UNL d   1       9.529   0.780  10.684  0.00  0.00     0.217 HD
ENDBRANCH  24  28
BRANCH  25  30
ATOM     30  O   UNL d   1       8.029   2.806  11.348  0.00  0.00    -0.358 OA
ATOM     31  H   UNL d   1       7.469   2.933  11.582  0.00  0.00     0.217 HD
ENDBRANCH  25  30
ENDBRANCH   6  22
BRANCH   5  32
ATOM     32  O   UNL d   1       9.235   3.513   8.652  0.00  0.00    -0.389 OA
ATOM     33  H   UNL d   1       9.090   4.099   8.515  0.00  0.00     0.210 HD
ENDBRANCH   5  32
BRANCH  11  34
ATOM     34  O   UNL d   1       8.624   0.757   4.169  0.00  0.00    -0.359 OA
ATOM     35  H   UNL d   1       8.798   0.230   4.444  0.00  0.00     0.217 HD
ENDBRANCH  11  34
BRANCH  18  36
ATOM     36  O   UNL d   1       7.999  -0.004   4.605  0.00  0.00    -0.360 OA
ATOM     37  H   UNL d   1       8.070  -0.417   4.148  0.00  0.00     0.217 HD
ENDBRANCH  18  36
BRANCH  21  38
ATOM     38  O   UNL d   1       5.997  -2.247   6.473  0.00  0.00    -0.361 OA
ATOM     39  H   UNL d   1       5.692  -2.379   6.996  0.00  0.00     0.217 HD
ENDBRANCH  21  38
BRANCH  17  40
ATOM     40  C   UNL d   1      11.222   3.436   1.180  0.00  0.00    -0.024 A 
ATOM     41  C   UNL d   1      10.742   4.052   0.555  0.00  0.00     0.049 A 
ATOM     42  C   UNL d   1      11.241   4.496  -0.190  0.00  0.00     0.099 A 
ATOM     43  C   UNL d   1      12.219   4.324  -0.308  0.00  0.00     0.098 A 
ATOM     44  C   UNL d   1      12.699   3.709   0.316  0.00  0.00     0.040 A 
ATOM     45  C   UNL d   1      12.200   3.264   1.061  0.00  0.00     0.013 A 
BRANCH  42  46
ATOM     46  O   UNL d   1      10.762   5.112  -0.815  0.00  0.00    -0.358 OA
ATOM     47  H   UNL d   1      10.594   5.677  -0.626  0.00  0.00     0.217 HD
ENDBRANCH  42  46
BRANCH  43  48
ATOM     48  O   UNL d   1      12.718   4.769  -1.053  0.00  0.00    -0.358 OA
ATOM     49  H   UNL d   1      13.323   4.658  -1.131  0.00  0.00     0.217 HD
ENDBRANCH  43  48
ENDBRANCH  17  40
BRANCH  16  50
ATOM     50  O   UNL d   1      10.148   1.676   0.826  0.00  0.00    -0.392 OA
ATOM     51  H   UNL d   1       9.936   1.100   0.745  0.00  0.00     0.210 HD
ENDBRANCH  16  50
TORSDOF 11
ENDMDL
MODEL 4
REMARK VINA RESULT:    -8.468      3.708      8.498
REMARK INTER + INTRA:          -2.162
REMARK INTER:                 -12.162
REMARK INTRA:                   9.999
REMARK UNBOUND:                10.019
REMARK  11 active torsions:
REMARK  status: ('A' for Active; 'I' for Inactive)
REMARK    1  A    between atoms: C_14  and  O_3 
REMARK    2  A    between atoms: O_5  and  C_20 
REMARK    3  A    between atoms: C_26  and  O_6 
REMARK    4  A    between atoms: O_7  and  C_28 
REMARK    5  A    between atoms: O_8  and  C_33 
REMARK    6  A    between atoms: O_9  and  C_35 
REMARK    7  A    between atoms: O_10  and  C_37 
REMARK    8  A    between atoms: O_11  and  C_40 
REMARK    9  A    between atoms: O_12  and  C_42 
REMARK   10  A    between atoms: C_15  and  C_21 
REMARK   11  A    between atoms: C_27  and  C_34 
ROOT
ATOM      1  O   UNL d   1       9.815   3.919   6.098  0.00  0.00    -0.306 OA
ATOM      2  O   UNL d   1       7.664   1.964   7.988  0.00  0.00    -0.306 OA
ATOM      3  O   UNL d   1      10.983   3.487   2.623  0.00  0.00    -0.338 OA
ATOM      4  C   UNL d   1       8.651   2.485   6.504  0.00  0.00     0.097 A 
ATOM      5  C   UNL d   1       9.121   3.948   7.793  0.00  0.00     0.199 A 
ATOM      6  C   UNL d   1       8.575   2.921   7.401  0.00  0.00     0.231 A 
ATOM      7  C   UNL d   1       9.336   2.672   5.186  0.00  0.00     0.021 A 
ATOM      8  C   UNL d   1       7.788   1.259   6.537  0.00  0.00     0.020 A 
ATOM      9  C   UNL d   1       9.903   3.496   5.197  0.00  0.00     0.085 A 
ATOM     10  C   UNL d   1       7.359   1.188   7.437  0.00  0.00     0.085 A 
ATOM     11  C   UNL d   1       9.280   2.072   4.336  0.00  0.00     0.084 A 
ATOM     12  C   UNL d   1       9.821   2.335   3.486  0.00  0.00     0.012 A 
ATOM     13  C   UNL d   1       9.762   1.711   2.600  0.00  0.00     0.079 A 
ATOM     14  C   UNL d   1      10.411   3.194   3.497  0.00  0.00     0.081 A 
ATOM     15  C   UNL d   1      10.452   3.777   4.358  0.00  0.00     0.075 A 
ATOM     16  C   UNL d   1      10.326   1.984   1.713  0.00  0.00     0.156 A 
ATOM     17  C   UNL d   1      10.940   2.878   1.725  0.00  0.00     0.191 A 
ATOM     18  C   UNL d   1       7.605   0.546   5.800  0.00  0.00     0.078 A 
ATOM     19  C   UNL d   1       6.717   0.399   7.663  0.00  0.00     0.074 A 
ATOM     20  C   UNL d   1       6.967  -0.252   6.004  0.00  0.00     0.073 A 
ATOM     21  C   UNL d   1       6.520  -0.325   6.942  0.00  0.00     0.071 A 
ENDROOT
BRANCH   6  22
ATOM     22  C   UNL d   1       8.498   3.357   8.298  0.00  0.00     0.010 A 
ATOM     23  C   UNL d   1       7.754   3.999   8.479  0.00  0.00     0.052 A 
ATOM     24  C   UNL d   1       7.677   4.435   9.376  0.00  0.00     0.099 A 
ATOM     25  C   UNL d   1       8.345   4.229  10.090  0.00  0.00     0.098 A 
ATOM     26  C   UNL d   1       9.090   3.586   9.908  0.00  0.00     0.040 A 
ATOM     27  C   UNL d   1       9.166   3.151   9.012  0.00  0.00     0.015 A 
BRANCH  24  28
ATOM     28  O   UNL d   1       6.933   5.078   9.558  0.00  0.00    -0.358 OA
ATOM     29  H   UNL d   1       6.524   4.959  10.009  0.00  0.00     0.217 HD
ENDBRANCH  24  28
BRANCH  25  30
ATOM     30  O   UNL d   1       8.270   4.664  10.987  0.00  0.00    -0.358 OA
ATOM     31  H   UNL d   1       8.142   5.270  11.029  0.00  0.00     0.217 HD
ENDBRANCH  25  30
ENDBRANCH   6  22
BRANCH   5  32
ATOM     32  O   UNL d   1       9.509   4.767   8.216  0.00  0.00    -0.389 OA
ATOM     33  H   UNL d   1       9.163   5.114   8.594  0.00  0.00     0.210 HD
ENDBRANCH   5  32
BRANCH  11  34
ATOM     34  O   UNL d   1       8.710   1.250   4.336  0.00  0.00    -0.359 OA
ATOM     35  H   UNL d   1       8.828   0.791   4.736  0.00  0.00     0.217 HD
ENDBRANCH  11  34
BRANCH  18  36
ATOM     36  O   UNL d   1       8.040   0.627   4.904  0.00  0.00    -0.360 OA
ATOM     37  H   UNL d   1       7.694   0.739   4.400  0.00  0.00     0.217 HD
ENDBRANCH  18  36
BRANCH  21  38
ATOM     38  O   UNL d   1       5.905  -1.087   7.147  0.00  0.00    -0.361 OA
ATOM     39  H   UNL d   1       6.119  -1.585   7.448  0.00  0.00     0.217 HD
ENDBRANCH  21  38
BRANCH  17  40
ATOM     40  C   UNL d   1      11.464   3.140   0.914  0.00  0.00    -0.024 A 
ATOM     41  C   UNL d   1      11.078   3.790   0.259  0.00  0.00     0.049 A 
ATOM     42  C   UNL d   1      11.602   4.051  -0.552  0.00  0.00     0.099 A 
ATOM     43  C   UNL d   1      12.510   3.663  -0.707  0.00  0.00     0.098 A 
ATOM     44  C   UNL d   1      12.895   3.013  -0.052  0.00  0.00     0.040 A 
ATOM     45  C   UNL d   1      12.372   2.751   0.759  0.00  0.00     0.013 A 
BRANCH  42  46
ATOM     46  O   UNL d   1      11.217   4.701  -1.208  0.00  0.00    -0.358 OA
ATOM     47  H   UNL d   1      10.684   4.573  -1.495  0.00  0.00     0.217 HD
ENDBRANCH  42  46
BRANCH  43  48
ATOM     48  O   UNL d   1      13.033   3.924  -1.518  0.00  0.00    -0.358 OA
ATOM     49  H   UNL d   1      12.926   4.470  -1.795  0.00  0.00     0.217 HD
ENDBRANCH  43  48
ENDBRANCH  17  40
BRANCH  16  50
ATOM     50  O   UNL d   1      10.278   1.416   0.893  0.00  0.00    -0.392 OA
ATOM     51  H   UNL d   1       9.754   1.118   0.751  0.00  0.00     0.210 HD
ENDBRANCH  16  50
TORSDOF 11
ENDMDL
MODEL 5
REMARK VINA RESULT:    -8.426      4.084      7.830
REMARK INTER + INTRA:          -2.102
REMARK INTER:                 -12.114
REMARK INTRA:                  10.012
REMARK UNBOUND:                10.019
REMARK  11 active torsions:
REMARK  status: ('A' for Active; 'I' for Inactive)
REMARK    1  A    between atoms: C_14  and  O_3 
REMARK    2  A    between atoms: O_5  and  C_20 
REMARK    3  A    between atoms: C_26  and  O_6 
REMARK    4  A    between atoms: O_7  and  C_28 
REMARK    5  A    between atoms: O_8  and  C_33 
REMARK    6  A    between atoms: O_9  and  C_35 
REMARK    7  A    between atoms: O_10  and  C_37 
REMARK    8  A    between atoms: O_11  and  C_40 
REMARK    9  A    between atoms: O_12  and  C_42 
REMARK   10  A    between atoms: C_15  and  C_21 
REMARK   11  A    between atoms: C_27  and  C_34 
ROOT
ATOM      1  O   UNL d   1       8.018   0.757   5.249  0.00  0.00    -0.306 OA
ATOM      2  O   UNL d   1       7.176   1.558   8.515  0.00  0.00    -0.306 OA
ATOM      3  O   UNL d   1      10.308   2.453   2.901  0.00  0.00    -0.338 OA
ATOM      4  C   UNL d   1       8.024   1.727   6.871  0.00  0.00     0.097 A 
ATOM      5  C   UNL d   1       6.935   0.073   6.557  0.00  0.00     0.199 A 
ATOM      6  C   UNL d   1       7.373   1.034   7.182  0.00  0.00     0.231 A 
ATOM      7  C   UNL d   1       8.828   2.095   5.663  0.00  0.00     0.021 A 
ATOM      8  C   UNL d   1       8.228   2.680   8.012  0.00  0.00     0.020 A 
ATOM      9  C   UNL d   1       8.669   1.442   4.922  0.00  0.00     0.085 A 
ATOM     10  C   UNL d   1       7.669   2.385   8.787  0.00  0.00     0.085 A 
ATOM     11  C   UNL d   1       9.478   2.898   5.538  0.00  0.00     0.084 A 
ATOM     12  C   UNL d   1       9.971   3.023   4.628  0.00  0.00     0.012 A 
ATOM     13  C   UNL d   1      10.649   3.860   4.498  0.00  0.00     0.079 A 
ATOM     14  C   UNL d   1       9.806   2.343   3.856  0.00  0.00     0.081 A 
ATOM     15  C   UNL d   1       9.151   1.547   4.005  0.00  0.00     0.075 A 
ATOM     16  C   UNL d   1      11.163   3.990   3.550  0.00  0.00     0.156 A 
ATOM     17  C   UNL d   1      10.990   3.282   2.747  0.00  0.00     0.191 A 
ATOM     18  C   UNL d   1       8.828   3.528   8.079  0.00  0.00     0.078 A 
ATOM     19  C   UNL d   1       7.671   2.918   9.681  0.00  0.00     0.074 A 
ATOM     20  C   UNL d   1       8.846   4.077   8.964  0.00  0.00     0.073 A 
ATOM     21  C   UNL d   1       8.263   3.769   9.771  0.00  0.00     0.071 A 
ENDROOT
BRANCH   6  22
ATOM     22  C   UNL d   1       6.723   0.341   7.493  0.00  0.00     0.010 A 
ATOM     23  C   UNL d   1       5.740   0.517   7.435  0.00  0.00     0.052 A 
ATOM     24  C   UNL d   1       5.089  -0.176   7.746  0.00  0.00     0.099 A 
ATOM     25  C   UNL d   1       5.422  -1.044   8.114  0.00  0.00     0.098 A 
ATOM     26  C   UNL d   1       6.405  -1.219   8.171  0.00  0.00     0.040 A 
ATOM     27  C   UNL d   1       7.055  -0.527   7.860  0.00  0.00     0.015 A 
BRANCH  24  28
ATOM     28  O   UNL d   1       4.106  -0.000   7.689  0.00  0.00    -0.358 OA
ATOM     29  H   UNL d   1       3.796   0.189   8.191  0.00  0.00     0.217 HD
ENDBRANCH  24  28
BRANCH  25  30
ATOM     30  O   UNL d   1       4.772  -1.738   8.425  0.00  0.00    -0.358 OA
ATOM     31  H   UNL d   1       4.352  -1.598   8.858  0.00  0.00     0.217 HD
ENDBRANCH  25  30
ENDBRANCH   6  22
BRANCH   5  32
ATOM     32  O   UNL d   1       6.515  -0.737   6.147  0.00  0.00    -0.389 OA
ATOM     33  H   UNL d   1       6.250  -1.165   6.508  0.00  0.00     0.210 HD
ENDBRANCH   5  32
BRANCH  11  34
ATOM     34  O   UNL d   1       9.630   3.545   6.285  0.00  0.00    -0.359 OA
ATOM     35  H   UNL d   1       9.389   3.434   6.845  0.00  0.00     0.217 HD
ENDBRANCH  11  34
BRANCH  18  36
ATOM     36  O   UNL d   1       9.384   3.814   7.298  0.00  0.00    -0.360 OA
ATOM     37  H   UNL d   1       9.997   3.718   7.302  0.00  0.00     0.217 HD
ENDBRANCH  18  36
BRANCH  21  38
ATOM     38  O   UNL d   1       8.273   4.289  10.625  0.00  0.00    -0.361 OA
ATOM     39  H   UNL d   1       7.754   4.560  10.829  0.00  0.00     0.217 HD
ENDBRANCH  21  38
BRANCH  17  40
ATOM     40  C   UNL d   1      11.458   3.392   1.869  0.00  0.00    -0.024 A 
ATOM     41  C   UNL d   1      10.992   3.843   1.109  0.00  0.00     0.049 A 
ATOM     42  C   UNL d   1      11.460   3.954   0.231  0.00  0.00     0.099 A 
ATOM     43  C   UNL d   1      12.393   3.613   0.116  0.00  0.00     0.098 A 
ATOM     44  C   UNL d   1      12.859   3.163   0.877  0.00  0.00     0.040 A 
ATOM     45  C   UNL d   1      12.391   3.052   1.755  0.00  0.00     0.013 A 
BRANCH  42  46
ATOM     46  O   UNL d   1      10.995   4.404  -0.531  0.00  0.00    -0.358 OA
ATOM     47  H   UNL d   1      11.214   4.938  -0.756  0.00  0.00     0.217 HD
ENDBRANCH  42  46
BRANCH  43  48
ATOM     48  O   UNL d   1      12.861   3.724  -0.761  0.00  0.00    -0.358 OA
ATOM     49  H   UNL d   1      13.284   4.171  -0.833  0.00  0.00     0.217 HD
ENDBRANCH  43  48
ENDBRANCH  17  40
BRANCH  16  50
ATOM     50  O   UNL d   1      11.789   4.758   3.420  0.00  0.00    -0.392 OA
ATOM     51  H   UNL d   1      11.745   5.112   2.913  0.00  0.00     0.210 HD
ENDBRANCH  16  50
TORSDOF 11
ENDMDL
