MODEL 1
REMARK VINA RESULT:    -6.898      0.000      0.000
REMARK INTER + INTRA:          -6.693
REMARK INTER:                  -7.699
REMARK INTRA:                   1.006
REMARK UNBOUND:                 1.012
REMARK  3 active torsions:
REMARK  status: ('A' for Active; 'I' for Inactive)
REMARK    1  A    between atoms: O_2  and  C_10 
REMARK    2  A    between atoms: O_4  and  C_13 
REMARK    3  A    between atoms: C_7  and  C_9 
ROOT
ATOM      1  O   UNL d   1       6.686   3.150   7.301  0.00  0.00    -0.309 OA
ATOM      2  O   UNL d   1       8.508   0.767   7.353  0.00  0.00    -0.287 OA
ATOM      3  C   UNL d   1       6.909   1.433   7.344  0.00  0.00     0.081 A 
ATOM      4  C   UNL d   1       6.302   2.227   7.326  0.00  0.00     0.095 A 
ATOM      5  C   UNL d   1       7.678   3.278   7.293  0.00  0.00     0.090 A 
ATOM      6  C   UNL d   1       7.901   1.561   7.336  0.00  0.00     0.190 A 
ATOM      7  C   UNL d   1       6.523   0.466   7.370  0.00  0.00     0.085 A 
ATOM      8  C   UNL d   1       8.285   2.484   7.310  0.00  0.00     0.094 A 
ATOM      9  C   UNL d   1       5.267   2.109   7.334  0.00  0.00     0.075 A 
ATOM     10  C   UNL d   1       4.859   1.151   7.360  0.00  0.00     0.071 A 
ATOM     11  C   UNL d   1       5.492   0.324   7.378  0.00  0.00     0.074 A 
ENDROOT
BRANCH   5  12
ATOM     12  C   UNL d   1       8.062   4.201   7.267  0.00  0.00    -0.002 A 
ATOM     13  C   UNL d   1       8.365   4.593   6.399  0.00  0.00     0.014 A 
ATOM     14  C   UNL d   1       8.749   5.516   6.373  0.00  0.00     0.001 A 
ATOM     15  C   UNL d   1       8.830   6.047   7.217  0.00  0.00     0.000 A 
ATOM     16  C   UNL d   1       8.527   5.656   8.085  0.00  0.00     0.001 A 
ATOM     17  C   UNL d   1       8.142   4.733   8.111  0.00  0.00     0.014 A 
ENDBRANCH   5  12
BRANCH   7  18
ATOM     18  O   UNL d   1       7.140  -0.321   7.387  0.00  0.00    -0.360 OA
ATOM     19  H   UNL d   1       7.410  -0.492   7.919  0.00  0.00     0.217 HD
ENDBRANCH   7  18
BRANCH  10  20
ATOM     20  O   UNL d   1       3.867   1.026   7.368  0.00  0.00    -0.361 OA
ATOM     21  H   UNL d   1       3.625   0.472   7.505  0.00  0.00     0.217 HD
ENDBRANCH  10  20
TORSDOF 3
ENDMDL
MODEL 2
REMARK VINA RESULT:    -6.762      3.132      5.341
REMARK INTER + INTRA:          -6.541
REMARK INTER:                  -7.600
REMARK INTRA:                   1.059
REMARK UNBOUND:                 1.012
REMARK  3 active torsions:
REMARK  status: ('A' for Active; 'I' for Inactive)
REMARK    1  A    between atoms: O_2  and  C_10 
REMARK    2  A    between atoms: O_4  and  C_13 
REMARK    3  A    between atoms: C_7  and  C_9 
ROOT
ATOM      1  O   UNL d   1       7.503   5.071   9.843  0.00  0.00    -0.309 OA
ATOM      2  O   UNL d   1       9.303   5.569   7.495  0.00  0.00    -0.287 OA
ATOM      3  C   UNL d   1       8.165   6.152   8.663  0.00  0.00     0.081 A 
ATOM      4  C   UNL d   1       7.565   5.986   9.445  0.00  0.00     0.095 A 
ATOM      5  C   UNL d   1       8.041   4.321   9.457  0.00  0.00     0.090 A 
ATOM      6  C   UNL d   1       8.703   5.403   8.278  0.00  0.00     0.190 A 
ATOM      7  C   UNL d   1       8.239   7.101   8.238  0.00  0.00     0.085 A 
ATOM      8  C   UNL d   1       8.641   4.487   8.675  0.00  0.00     0.094 A 
ATOM      9  C   UNL d   1       6.998   6.757   9.857  0.00  0.00     0.075 A 
ATOM     10  C   UNL d   1       7.057   7.713   9.449  0.00  0.00     0.071 A 
ATOM     11  C   UNL d   1       7.681   7.886   8.634  0.00  0.00     0.074 A 
ENDROOT
BRANCH   5  12
ATOM     12  C   UNL d   1       7.980   3.406   9.855  0.00  0.00    -0.002 A 
ATOM     13  C   UNL d   1       7.561   2.662   9.334  0.00  0.00     0.014 A 
ATOM     14  C   UNL d   1       7.500   1.746   9.731  0.00  0.00     0.001 A 
ATOM     15  C   UNL d   1       7.856   1.575  10.650  0.00  0.00     0.000 A 
ATOM     16  C   UNL d   1       8.275   2.319  11.171  0.00  0.00     0.001 A 
ATOM     17  C   UNL d   1       8.336   3.234  10.773  0.00  0.00     0.014 A 
ENDBRANCH   5  12
BRANCH   7  18
ATOM     18  O   UNL d   1       8.842   7.255   7.456  0.00  0.00    -0.360 OA
ATOM     19  H   UNL d   1       8.722   6.981   6.913  0.00  0.00     0.217 HD
ENDBRANCH   7  18
BRANCH  10  20
ATOM     20  O   UNL d   1       6.516   8.460   9.837  0.00  0.00    -0.361 OA
ATOM     21  H   UNL d   1       6.685   9.049   9.737  0.00  0.00     0.217 HD
ENDBRANCH  10  20
TORSDOF 3
ENDMDL
MODEL 3
REMARK VINA RESULT:    -6.569     12.021     13.054
REMARK INTER + INTRA:          -6.326
REMARK INTER:                  -7.334
REMARK INTRA:                   1.009
REMARK UNBOUND:                 1.012
REMARK  3 active torsions:
REMARK  status: ('A' for Active; 'I' for Inactive)
REMARK    1  A    between atoms: O_2  and  C_10 
REMARK    2  A    between atoms: O_4  and  C_13 
REMARK    3  A    between atoms: C_7  and  C_9 
ROOT
ATOM      1  O   UNL d   1      -0.337  -7.297   4.025  0.00  0.00    -0.309 OA
ATOM      2  O   UNL d   1       0.214  -4.897   2.311  0.00  0.00    -0.287 OA
ATOM      3  C   UNL d   1       0.473  -6.570   2.677  0.00  0.00     0.081 A 
ATOM      4  C   UNL d   1       0.289  -7.370   3.249  0.00  0.00     0.095 A 
ATOM      5  C   UNL d   1      -0.780  -6.424   4.230  0.00  0.00     0.090 A 
ATOM      6  C   UNL d   1       0.030  -5.697   2.882  0.00  0.00     0.190 A 
ATOM      7  C   UNL d   1       1.123  -6.631   1.866  0.00  0.00     0.085 A 
ATOM      8  C   UNL d   1      -0.596  -5.624   3.658  0.00  0.00     0.094 A 
ATOM      9  C   UNL d   1       0.743  -8.286   3.048  0.00  0.00     0.075 A 
ATOM     10  C   UNL d   1       1.396  -8.370   2.241  0.00  0.00     0.071 A 
ATOM     11  C   UNL d   1       1.587  -7.537   1.646  0.00  0.00     0.074 A 
ENDROOT
BRANCH   5  12
ATOM     12  C   UNL d   1      -1.406  -6.351   5.006  0.00  0.00    -0.002 A 
ATOM     13  C   UNL d   1      -1.044  -6.241   5.932  0.00  0.00     0.014 A 
ATOM     14  C   UNL d   1      -1.670  -6.168   6.708  0.00  0.00     0.001 A 
ATOM     15  C   UNL d   1      -2.658  -6.206   6.558  0.00  0.00     0.000 A 
ATOM     16  C   UNL d   1      -3.020  -6.316   5.633  0.00  0.00     0.001 A 
ATOM     17  C   UNL d   1      -2.394  -6.389   4.856  0.00  0.00     0.014 A 
ENDBRANCH   5  12
BRANCH   7  18
ATOM     18  O   UNL d   1       1.299  -5.825   1.301  0.00  0.00    -0.360 OA
ATOM     19  H   UNL d   1       1.464  -5.290   1.568  0.00  0.00     0.217 HD
ENDBRANCH   7  18
BRANCH  10  20
ATOM     20  O   UNL d   1       1.837  -9.245   2.040  0.00  0.00    -0.361 OA
ATOM     21  H   UNL d   1       2.223  -9.500   2.453  0.00  0.00     0.217 HD
ENDBRANCH  10  20
TORSDOF 3
ENDMDL
MODEL 4
REMARK VINA RESULT:    -6.568      2.480      3.340
REMARK INTER + INTRA:          -6.324
REMARK INTER:                  -7.405
REMARK INTRA:                   1.080
REMARK UNBOUND:                 1.012
REMARK  3 active torsions:
REMARK  status: ('A' for Active; 'I' for Inactive)
REMARK    1  A    between atoms: O_2  and  C_10 
REMARK    2  A    between atoms: O_4  and  C_13 
REMARK    3  A    between atoms: C_7  and  C_9 
ROOT
ATOM      1  O   UNL d   1       7.986   4.203  10.057  0.00  0.00    -0.309 OA
ATOM      2  O   UNL d   1       7.079   2.399   7.839  0.00  0.00    -0.287 OA
ATOM      3  C   UNL d   1       7.646   2.613   9.461  0.00  0.00     0.081 A 
ATOM      4  C   UNL d   1       7.949   3.214  10.201  0.00  0.00     0.095 A 
ATOM      5  C   UNL d   1       7.721   4.591   9.175  0.00  0.00     0.090 A 
ATOM      6  C   UNL d   1       7.381   3.000   8.578  0.00  0.00     0.190 A 
ATOM      7  C   UNL d   1       7.603   1.581   9.596  0.00  0.00     0.085 A 
ATOM      8  C   UNL d   1       7.418   3.989   8.435  0.00  0.00     0.094 A 
ATOM      9  C   UNL d   1       8.228   2.826  11.126  0.00  0.00     0.075 A 
ATOM     10  C   UNL d   1       8.192   1.796  11.283  0.00  0.00     0.071 A 
ATOM     11  C   UNL d   1       7.877   1.170  10.513  0.00  0.00     0.074 A 
ENDROOT
BRANCH   5  12
ATOM     12  C   UNL d   1       7.758   5.580   9.031  0.00  0.00    -0.002 A 
ATOM     13  C   UNL d   1       7.170   6.185   9.567  0.00  0.00     0.014 A 
ATOM     14  C   UNL d   1       7.207   7.174   9.424  0.00  0.00     0.001 A 
ATOM     15  C   UNL d   1       7.832   7.557   8.744  0.00  0.00     0.000 A 
ATOM     16  C   UNL d   1       8.421   6.952   8.208  0.00  0.00     0.001 A 
ATOM     17  C   UNL d   1       8.383   5.963   8.352  0.00  0.00     0.014 A 
ENDBRANCH   5  12
BRANCH   7  18
ATOM     18  O   UNL d   1       7.299   0.989   8.850  0.00  0.00    -0.360 OA
ATOM     19  H   UNL d   1       7.104   0.414   8.971  0.00  0.00     0.217 HD
ENDBRANCH   7  18
BRANCH  10  20
ATOM     20  O   UNL d   1       8.458   1.413  12.168  0.00  0.00    -0.361 OA
ATOM     21  H   UNL d   1       9.041   1.223  12.260  0.00  0.00     0.217 HD
ENDBRANCH  10  20
TORSDOF 3
ENDMDL
MODEL 5
REMARK VINA RESULT:    -6.465      1.963      2.749
REMARK INTER + INTRA:          -6.209
REMARK INTER:                  -7.282
REMARK INTRA:                   1.073
REMARK UNBOUND:                 1.012
REMARK  3 active torsions:
REMARK  status: ('A' for Active; 'I' for Inactive)
REMARK    1  A    between atoms: O_2  and  C_10 
REMARK    2  A    between atoms: O_4  and  C_13 
REMARK    3  A    between atoms: C_7  and  C_9 
ROOT
ATOM      1  O   UNL d   1       7.586   4.168   8.282  0.00  0.00    -0.309 OA
ATOM      2  O   UNL d   1       8.245   3.255  11.062  0.00  0.00    -0.287 OA
ATOM      3  C   UNL d   1       7.674   2.906   9.465  0.00  0.00     0.081 A 
ATOM      4  C   UNL d   1       7.454   3.210   8.538  0.00  0.00     0.095 A 
ATOM      5  C   UNL d   1       7.938   4.821   8.952  0.00  0.00     0.090 A 
ATOM      6  C   UNL d   1       8.025   3.559  10.135  0.00  0.00     0.190 A 
ATOM      7  C   UNL d   1       7.542   1.912   9.746  0.00  0.00     0.085 A 
ATOM      8  C   UNL d   1       8.157   4.517   9.879  0.00  0.00     0.094 A 
ATOM      9  C   UNL d   1       7.087   2.542   7.828  0.00  0.00     0.075 A 
ATOM     10  C   UNL d   1       6.947   1.543   8.088  0.00  0.00     0.071 A 
ATOM     11  C   UNL d   1       7.176   1.226   9.053  0.00  0.00     0.074 A 
ENDROOT
BRANCH   5  12
ATOM     12  C   UNL d   1       8.070   5.779   8.696  0.00  0.00    -0.002 A 
ATOM     13  C   UNL d   1       7.531   6.494   9.141  0.00  0.00     0.014 A 
ATOM     14  C   UNL d   1       7.663   7.452   8.885  0.00  0.00     0.001 A 
ATOM     15  C   UNL d   1       8.333   7.694   8.183  0.00  0.00     0.000 A 
ATOM     16  C   UNL d   1       8.871   6.978   7.738  0.00  0.00     0.001 A 
ATOM     17  C   UNL d   1       8.740   6.021   7.994  0.00  0.00     0.014 A 
ENDBRANCH   5  12
BRANCH   7  18
ATOM     18  O   UNL d   1       7.764   1.619  10.676  0.00  0.00    -0.360 OA
ATOM     19  H   UNL d   1       7.316   1.419  11.053  0.00  0.00     0.217 HD
ENDBRANCH   7  18
BRANCH  10  20
ATOM     20  O   UNL d   1       6.595   0.893   7.414  0.00  0.00    -0.361 OA
ATOM     21  H   UNL d   1       6.118   0.525   7.559  0.00  0.00     0.217 HD
ENDBRANCH  10  20
TORSDOF 3
ENDMDL
