MODEL 1
REMARK VINA RESULT:   -10.518      0.000      0.000
REMARK INTER + INTRA:          50.687
REMARK INTER:                 -19.270
REMARK INTRA:                  69.957
REMARK UNBOUND:                69.813
REMARK  23 active torsions:
REMARK  status: ('A' for Active; 'I' for Inactive)
REMARK    1  A    between atoms: C_29  and  O_6 
REMARK    2  A    between atoms: C_32  and  O_7 
REMARK    3  A    between atoms: C_38  and  O_8 
REMARK    4  A    between atoms: O_10  and  C_47 
REMARK    5  A    between atoms: O_11  and  C_48 
REMARK    6  A    between atoms: O_12  and  C_51 
REMARK    7  A    between atoms: O_13  and  C_62 
REMARK    8  A    between atoms: O_14  and  C_63 
REMARK    9  A    between atoms: C_65  and  O_15 
REMARK   10  A    between atoms: O_16  and  C_69 
REMARK   11  A    between atoms: O_17  and  C_70 
REMARK   12  A    between atoms: O_18  and  C_71 
REMARK   13  A    between atoms: O_19  and  C_74 
REMARK   14  A    between atoms: O_20  and  C_75 
REMARK   15  A    between atoms: O_21  and  C_76 
REMARK   16  A    between atoms: O_22  and  C_79 
REMARK   17  A    between atoms: O_23  and  C_82 
REMARK   18  A    between atoms: O_24  and  C_84 
REMARK   19  A    between atoms: C_34  and  C_45 
REMARK   20  A    between atoms: C_35  and  C_46 
REMARK   21  A    between atoms: C_36  and  C_42 
REMARK   22  A    between atoms: C_41  and  C_49 
REMARK   23  A    between atoms: C_64  and  C_77 
ROOT
ATOM      1  O   UNL d   1       9.155  -0.516   4.690  0.00  0.00    -0.305 OA
ATOM      2  O   UNL d   1      11.060   1.421   2.174  0.00  0.00    -0.305 OA
ATOM      3  O   UNL d   1       9.513   2.876   5.189  0.00  0.00    -0.337 OA
ATOM      4  O   UNL d   1      11.428  -0.293   1.017  0.00  0.00    -0.306 OA
ATOM      5  O   UNL d   1       7.599   0.555   7.597  0.00  0.00    -0.306 OA
ATOM      6  C   UNL d   1      10.319  -0.513   2.773  0.00  0.00     0.097 A 
ATOM      7  C   UNL d   1       8.579   0.692   6.025  0.00  0.00     0.097 A 
ATOM      8  C   UNL d   1      10.125   0.369   3.375  0.00  0.00     0.022 A 
ATOM      9  C   UNL d   1       9.384   1.079   4.824  0.00  0.00     0.021 A 
ATOM     10  C   UNL d   1      10.893  -0.420   1.858  0.00  0.00     0.199 A 
ATOM     11  C   UNL d   1       9.574   0.280   4.254  0.00  0.00     0.092 A 
ATOM     12  C   UNL d   1      10.285   2.136   3.679  0.00  0.00     0.021 A 
ATOM     13  C   UNL d   1       8.184  -1.274   6.046  0.00  0.00     0.199 A 
ATOM     14  C   UNL d   1      10.483   1.303   3.086  0.00  0.00     0.092 A 
ATOM     15  C   UNL d   1       8.166  -0.114   6.448  0.00  0.00     0.231 A 
ATOM     16  C   UNL d   1      11.266   0.554   1.555  0.00  0.00     0.231 A 
ATOM     17  C   UNL d   1      10.658   3.110   3.377  0.00  0.00     0.094 A 
ATOM     18  C   UNL d   1       9.732   2.024   4.555  0.00  0.00     0.089 A 
ATOM     19  C   UNL d   1      10.451   3.977   3.996  0.00  0.00     0.165 A 
ATOM     20  C   UNL d   1      10.531  -1.303   2.170  0.00  0.00     0.020 A 
ATOM     21  C   UNL d   1       8.268   1.860   6.913  0.00  0.00     0.020 A 
ATOM     22  C   UNL d   1       9.875   3.859   4.907  0.00  0.00     0.192 A 
ATOM     23  C   UNL d   1      11.071  -1.196   1.315  0.00  0.00     0.085 A 
ATOM     24  C   UNL d   1       7.732   1.542   7.694  0.00  0.00     0.085 A 
ATOM     25  C   UNL d   1      10.217  -2.174   2.407  0.00  0.00     0.078 A 
ATOM     26  C   UNL d   1       8.524   2.865   6.815  0.00  0.00     0.078 A 
ATOM     27  C   UNL d   1      11.243  -1.971   0.784  0.00  0.00     0.074 A 
ATOM     28  C   UNL d   1       7.414   2.206   8.431  0.00  0.00     0.074 A 
ATOM     29  C   UNL d   1      10.407  -2.927   1.853  0.00  0.00     0.073 A 
ATOM     30  C   UNL d   1       8.216   3.548   7.540  0.00  0.00     0.073 A 
ATOM     31  C   UNL d   1      10.914  -2.828   1.049  0.00  0.00     0.071 A 
ATOM     32  C   UNL d   1       7.658   3.215   8.354  0.00  0.00     0.071 A 
ENDROOT
BRANCH  17  33
ATOM     33  C   UNL d   1      11.188   3.206   2.536  0.00  0.00     0.020 A 
ATOM     34  C   UNL d   1      12.188   3.174   2.567  0.00  0.00     0.088 A 
ATOM     35  O   UNL d   1      12.661   3.041   3.485  0.00  0.00    -0.337 OA
ATOM     36  C   UNL d   1      12.718   3.271   1.726  0.00  0.00     0.012 A 
ATOM     37  C   UNL d   1      13.702   3.006   3.526  0.00  0.00     0.191 A 
ATOM     38  C   UNL d   1      14.254   3.107   2.650  0.00  0.00     0.156 A 
ATOM     39  C   UNL d   1      13.759   3.240   1.743  0.00  0.00     0.079 A 
ATOM     40  C   UNL d   1      12.249   3.399   0.851  0.00  0.00     0.077 A 
ATOM     41  C   UNL d   1      11.251   3.430   0.819  0.00  0.00     0.074 A 
ATOM     42  C   UNL d   1      10.720   3.334   1.661  0.00  0.00     0.078 A 
BRANCH  37  43
ATOM     43  C   UNL d   1      14.166   2.878   4.403  0.00  0.00    -0.024 A 
ATOM     44  C   UNL d   1      14.325   3.662   5.003  0.00  0.00     0.049 A 
ATOM     45  C   UNL d   1      14.790   3.535   5.880  0.00  0.00     0.099 A 
ATOM     46  C   UNL d   1      15.095   2.623   6.156  0.00  0.00     0.098 A 
ATOM     47  C   UNL d   1      14.935   1.840   5.556  0.00  0.00     0.040 A 
ATOM     48  C   UNL d   1      14.471   1.967   4.679  0.00  0.00     0.013 A 
BRANCH  45  49
ATOM     49  O   UNL d   1      14.949   4.319   6.479  0.00  0.00    -0.358 OA
ATOM     50  H   UNL d   1      14.994   4.889   6.239  0.00  0.00     0.217 HD
ENDBRANCH  45  49
BRANCH  46  51
ATOM     51  O   UNL d   1      15.559   2.496   7.032  0.00  0.00    -0.358 OA
ATOM     52  H   UNL d   1      16.179   2.512   7.060  0.00  0.00     0.217 HD
ENDBRANCH  46  51
ENDBRANCH  37  43
BRANCH  38  53
ATOM     53  O   UNL d   1      15.253   3.075   2.678  0.00  0.00    -0.392 OA
ATOM     54  H   UNL d   1      15.545   2.950   3.210  0.00  0.00     0.210 HD
ENDBRANCH  38  53
BRANCH  40  55
ATOM     55  O   UNL d   1      12.780   3.495   0.009  0.00  0.00    -0.360 OA
ATOM     56  H   UNL d   1      13.267   3.880  -0.009  0.00  0.00     0.217 HD
ENDBRANCH  40  55
BRANCH  42  57
ATOM     57  O   UNL d   1       9.931   3.275   2.273  0.00  0.00    -0.360 OA
ATOM     58  H   UNL d   1       9.775   3.762   2.624  0.00  0.00     0.217 HD
ENDBRANCH  42  57
ENDBRANCH  17  33
BRANCH  19  59
ATOM     59  O   UNL d   1      10.790   4.879   3.727  0.00  0.00    -0.392 OA
ATOM     60  H   UNL d   1      10.780   5.347   4.133  0.00  0.00     0.210 HD
ENDBRANCH  19  59
BRANCH  22  61
ATOM     61  C   UNL d   1       9.679   4.653   5.485  0.00  0.00    -0.024 A 
ATOM     62  C   UNL d   1      10.317   4.912   6.210  0.00  0.00     0.049 A 
ATOM     63  C   UNL d   1      10.121   5.705   6.787  0.00  0.00     0.099 A 
ATOM     64  C   UNL d   1       9.288   6.237   6.639  0.00  0.00     0.098 A 
ATOM     65  C   UNL d   1       8.650   5.978   5.914  0.00  0.00     0.040 A 
ATOM     66  C   UNL d   1       8.846   5.184   5.337  0.00  0.00     0.013 A 
BRANCH  63  67
ATOM     67  O   UNL d   1      10.758   5.966   7.512  0.00  0.00    -0.358 OA
ATOM     68  H   UNL d   1      11.062   5.530   7.831  0.00  0.00     0.217 HD
ENDBRANCH  63  67
BRANCH  64  69
ATOM     69  O   UNL d   1       9.091   7.030   7.216  0.00  0.00    -0.358 OA
ATOM     70  H   UNL d   1       8.909   6.950   7.803  0.00  0.00     0.217 HD
ENDBRANCH  64  69
ENDBRANCH  22  61
BRANCH  16  71
ATOM     71  C   UNL d   1      11.794   0.625   0.709  0.00  0.00     0.010 A 
ATOM     72  C   UNL d   1      11.335   0.863  -0.147  0.00  0.00     0.052 A 
ATOM     73  C   UNL d   1      11.863   0.934  -0.993  0.00  0.00     0.099 A 
ATOM     74  C   UNL d   1      12.849   0.767  -0.984  0.00  0.00     0.098 A 
ATOM     75  C   UNL d   1      13.307   0.529  -0.127  0.00  0.00     0.040 A 
ATOM     76  C   UNL d   1      12.780   0.458   0.719  0.00  0.00     0.015 A 
BRANCH  73  77
ATOM     77  O   UNL d   1      11.404   1.172  -1.850  0.00  0.00    -0.358 OA
ATOM     78  H   UNL d   1      11.733   1.219  -2.374  0.00  0.00     0.217 HD
ENDBRANCH  73  77
BRANCH  74  79
ATOM     79  O   UNL d   1      13.377   0.838  -1.830  0.00  0.00    -0.358 OA
ATOM     80  H   UNL d   1      13.749   1.326  -1.923  0.00  0.00     0.217 HD
ENDBRANCH  74  79
ENDBRANCH  16  71
BRANCH  10  81
ATOM     81  O   UNL d   1      11.305  -0.833   1.046  0.00  0.00    -0.389 OA
ATOM     82  H   UNL d   1      11.572  -1.319   0.766  0.00  0.00     0.210 HD
ENDBRANCH  10  81
BRANCH  13  83
ATOM     83  O   UNL d   1       8.134  -2.246   5.816  0.00  0.00    -0.389 OA
ATOM     84  H   UNL d   1       8.594  -2.627   5.981  0.00  0.00     0.210 HD
ENDBRANCH  13  83
BRANCH  25  85
ATOM     85  O   UNL d   1       9.685  -2.297   3.245  0.00  0.00    -0.360 OA
ATOM     86  H   UNL d   1       9.629  -1.830   3.648  0.00  0.00     0.217 HD
ENDBRANCH  25  85
BRANCH  15  87
ATOM     87  C   UNL d   1       7.752  -0.921   6.870  0.00  0.00     0.010 A 
ATOM     88  C   UNL d   1       6.782  -1.118   6.728  0.00  0.00     0.052 A 
ATOM     89  C   UNL d   1       6.369  -1.924   7.150  0.00  0.00     0.099 A 
ATOM     90  C   UNL d   1       6.925  -2.533   7.715  0.00  0.00     0.098 A 
ATOM     91  C   UNL d   1       7.895  -2.337   7.858  0.00  0.00     0.040 A 
ATOM     92  C   UNL d   1       8.309  -1.530   7.435  0.00  0.00     0.015 A 
BRANCH  89  93
ATOM     93  O   UNL d   1       5.399  -2.122   7.008  0.00  0.00    -0.358 OA
ATOM     94  H   UNL d   1       5.148  -2.054   6.445  0.00  0.00     0.217 HD
ENDBRANCH  89  93
BRANCH  90  95
ATOM     95  O   UNL d   1       6.511  -3.340   8.137  0.00  0.00    -0.358 OA
ATOM     96  H   UNL d   1       5.915  -3.329   8.310  0.00  0.00     0.217 HD
ENDBRANCH  90  95
ENDBRANCH  15  87
BRANCH  26  97
ATOM     97  O   UNL d   1       9.060   3.173   6.030  0.00  0.00    -0.360 OA
ATOM     98  H   UNL d   1       9.570   2.862   5.861  0.00  0.00     0.217 HD
ENDBRANCH  26  97
BRANCH  31  99
ATOM     99  O   UNL d   1      11.104  -3.627   0.480  0.00  0.00    -0.361 OA
ATOM    100  H   UNL d   1      11.312  -4.151   0.741  0.00  0.00     0.217 HD
ENDBRANCH  31  99
BRANCH  32 101
ATOM    101  O   UNL d   1       7.358   3.861   9.055  0.00  0.00    -0.361 OA
ATOM    102  H   UNL d   1       6.811   3.782   9.336  0.00  0.00     0.217 HD
ENDBRANCH  32 101
TORSDOF 23
ENDMDL
MODEL 2
REMARK VINA RESULT:    -9.877      1.984      7.940
REMARK INTER + INTRA:          51.851
REMARK INTER:                 -18.012
REMARK INTRA:                  69.863
REMARK UNBOUND:                69.813
REMARK  23 active torsions:
REMARK  status: ('A' for Active; 'I' for Inactive)
REMARK    1  A    between atoms: C_29  and  O_6 
REMARK    2  A    between atoms: C_32  and  O_7 
REMARK    3  A    between atoms: C_38  and  O_8 
REMARK    4  A    between atoms: O_10  and  C_47 
REMARK    5  A    between atoms: O_11  and  C_48 
REMARK    6  A    between atoms: O_12  and  C_51 
REMARK    7  A    between atoms: O_13  and  C_62 
REMARK    8  A    between atoms: O_14  and  C_63 
REMARK    9  A    between atoms: C_65  and  O_15 
REMARK   10  A    between atoms: O_16  and  C_69 
REMARK   11  A    between atoms: O_17  and  C_70 
REMARK   12  A    between atoms: O_18  and  C_71 
REMARK   13  A    between atoms: O_19  and  C_74 
REMARK   14  A    between atoms: O_20  and  C_75 
REMARK   15  A    between atoms: O_21  and  C_76 
REMARK   16  A    between atoms: O_22  and  C_79 
REMARK   17  A    between atoms: O_23  and  C_82 
REMARK   18  A    between atoms: O_24  and  C_84 
REMARK   19  A    between atoms: C_34  and  C_45 
REMARK   20  A    between atoms: C_35  and  C_46 
REMARK   21  A    between atoms: C_36  and  C_42 
REMARK   22  A    between atoms: C_41  and  C_49 
REMARK   23  A    between atoms: C_64  and  C_77 
ROOT
ATOM      1  O   UNL d   1      10.539   3.479   6.144  0.00  0.00    -0.305 OA
ATOM      2  O   UNL d   1       8.410   0.449   6.149  0.00  0.00    -0.305 OA
ATOM      3  O   UNL d   1      10.728   1.361   3.430  0.00  0.00    -0.337 OA
ATOM      4  O   UNL d   1       7.591   0.931   8.022  0.00  0.00    -0.306 OA
ATOM      5  O   UNL d   1      12.795   4.597   3.761  0.00  0.00    -0.306 OA
ATOM      6  C   UNL d   1       9.008   2.231   7.206  0.00  0.00     0.097 A 
ATOM      7  C   UNL d   1      11.531   3.477   4.535  0.00  0.00     0.097 A 
ATOM      8  C   UNL d   1       9.434   1.987   6.238  0.00  0.00     0.022 A 
ATOM      9  C   UNL d   1      10.548   2.418   4.923  0.00  0.00     0.021 A 
ATOM     10  C   UNL d   1       8.271   1.569   7.647  0.00  0.00     0.199 A 
ATOM     11  C   UNL d   1      10.142   2.623   5.814  0.00  0.00     0.092 A 
ATOM     12  C   UNL d   1       9.568   0.913   4.800  0.00  0.00     0.021 A 
ATOM     13  C   UNL d   1      11.669   4.906   5.935  0.00  0.00     0.199 A 
ATOM     14  C   UNL d   1       9.146   1.127   5.728  0.00  0.00     0.092 A 
ATOM     15  C   UNL d   1      11.918   4.332   4.880  0.00  0.00     0.231 A 
ATOM     16  C   UNL d   1       7.969   0.672   7.116  0.00  0.00     0.231 A 
ATOM     17  C   UNL d   1       9.267   0.016   4.268  0.00  0.00     0.094 A 
ATOM     18  C   UNL d   1      10.274   1.563   4.395  0.00  0.00     0.089 A 
ATOM     19  C   UNL d   1       9.708  -0.206   3.302  0.00  0.00     0.165 A 
ATOM     20  C   UNL d   1       8.575   2.408   8.108  0.00  0.00     0.020 A 
ATOM     21  C   UNL d   1      12.168   3.213   3.203  0.00  0.00     0.020 A 
ATOM     22  C   UNL d   1      10.443   0.471   2.881  0.00  0.00     0.192 A 
ATOM     23  C   UNL d   1       7.885   1.776   8.506  0.00  0.00     0.085 A 
ATOM     24  C   UNL d   1      12.812   3.950   2.998  0.00  0.00     0.085 A 
ATOM     25  C   UNL d   1       8.818   3.189   8.602  0.00  0.00     0.078 A 
ATOM     26  C   UNL d   1      12.028   2.426   2.536  0.00  0.00     0.078 A 
ATOM     27  C   UNL d   1       7.508   1.988   9.358  0.00  0.00     0.074 A 
ATOM     28  C   UNL d   1      13.360   3.951   2.112  0.00  0.00     0.074 A 
ATOM     29  C   UNL d   1       8.421   3.371   9.451  0.00  0.00     0.073 A 
ATOM     30  C   UNL d   1      12.565   2.406   1.643  0.00  0.00     0.073 A 
ATOM     31  C   UNL d   1       7.773   2.777   9.825  0.00  0.00     0.071 A 
ATOM     32  C   UNL d   1      13.235   3.174   1.430  0.00  0.00     0.071 A 
ENDROOT
BRANCH  17  33
ATOM     33  C   UNL d   1       8.589  -0.601   4.666  0.00  0.00     0.020 A 
ATOM     34  C   UNL d   1       8.886  -1.386   5.211  0.00  0.00     0.088 A 
ATOM     35  O   UNL d   1       9.904  -1.547   5.354  0.00  0.00    -0.337 OA
ATOM     36  C   UNL d   1       8.208  -2.003   5.610  0.00  0.00     0.012 A 
ATOM     37  C   UNL d   1      10.221  -2.363   5.920  0.00  0.00     0.191 A 
ATOM     38  C   UNL d   1       9.515  -3.006   6.335  0.00  0.00     0.156 A 
ATOM     39  C   UNL d   1       8.501  -2.824   6.179  0.00  0.00     0.079 A 
ATOM     40  C   UNL d   1       7.232  -1.835   5.464  0.00  0.00     0.077 A 
ATOM     41  C   UNL d   1       6.935  -1.051   4.920  0.00  0.00     0.074 A 
ATOM     42  C   UNL d   1       7.614  -0.433   4.521  0.00  0.00     0.078 A 
BRANCH  37  43
ATOM     43  C   UNL d   1      11.198  -2.527   6.063  0.00  0.00    -0.024 A 
ATOM     44  C   UNL d   1      11.677  -2.065   6.809  0.00  0.00     0.049 A 
ATOM     45  C   UNL d   1      12.653  -2.228   6.953  0.00  0.00     0.099 A 
ATOM     46  C   UNL d   1      13.149  -2.854   6.350  0.00  0.00     0.098 A 
ATOM     47  C   UNL d   1      12.669  -3.315   5.605  0.00  0.00     0.040 A 
ATOM     48  C   UNL d   1      11.693  -3.152   5.461  0.00  0.00     0.013 A 
BRANCH  45  49
ATOM     49  O   UNL d   1      13.133  -1.766   7.698  0.00  0.00    -0.358 OA
ATOM     50  H   UNL d   1      13.177  -1.148   7.703  0.00  0.00     0.217 HD
ENDBRANCH  45  49
BRANCH  46  51
ATOM     51  O   UNL d   1      14.125  -3.017   6.494  0.00  0.00    -0.358 OA
ATOM     52  H   UNL d   1      14.342  -3.116   7.067  0.00  0.00     0.217 HD
ENDBRANCH  46  51
ENDBRANCH  37  43
BRANCH  38  53
ATOM     53  O   UNL d   1       9.808  -3.791   6.880  0.00  0.00    -0.392 OA
ATOM     54  H   UNL d   1       9.446  -4.293   6.919  0.00  0.00     0.210 HD
ENDBRANCH  38  53
BRANCH  40  55
ATOM     55  O   UNL d   1       6.554  -2.452   5.863  0.00  0.00    -0.360 OA
ATOM     56  H   UNL d   1       6.351  -2.359   6.442  0.00  0.00     0.217 HD
ENDBRANCH  40  55
BRANCH  42  57
ATOM     57  O   UNL d   1       8.000   0.335   4.010  0.00  0.00    -0.360 OA
ATOM     58  H   UNL d   1       7.684   0.581   3.536  0.00  0.00     0.217 HD
ENDBRANCH  42  57
ENDBRANCH  17  33
BRANCH  19  59
ATOM     59  O   UNL d   1       9.438  -1.030   2.804  0.00  0.00    -0.392 OA
ATOM     60  H   UNL d   1       8.839  -1.142   2.691  0.00  0.00     0.210 HD
ENDBRANCH  19  59
BRANCH  22  61
ATOM     61  C   UNL d   1      10.856   0.275   1.990  0.00  0.00    -0.024 A 
ATOM     62  C   UNL d   1      11.668  -0.305   1.933  0.00  0.00     0.049 A 
ATOM     63  C   UNL d   1      12.080  -0.501   1.042  0.00  0.00     0.099 A 
ATOM     64  C   UNL d   1      11.680  -0.116   0.211  0.00  0.00     0.098 A 
ATOM     65  C   UNL d   1      10.868   0.464   0.269  0.00  0.00     0.040 A 
ATOM     66  C   UNL d   1      10.455   0.660   1.159  0.00  0.00     0.013 A 
BRANCH  63  67
ATOM     67  O   UNL d   1      12.893  -1.081   0.984  0.00  0.00    -0.358 OA
ATOM     68  H   UNL d   1      13.257  -1.155   1.479  0.00  0.00     0.217 HD
ENDBRANCH  63  67
BRANCH  64  69
ATOM     69  O   UNL d   1      12.092  -0.312  -0.679  0.00  0.00    -0.358 OA
ATOM     70  H   UNL d   1      12.308  -0.879  -0.803  0.00  0.00     0.217 HD
ENDBRANCH  64  69
ENDBRANCH  22  61
BRANCH  16  71
ATOM     71  C   UNL d   1       7.289   0.071   7.534  0.00  0.00     0.010 A 
ATOM     72  C   UNL d   1       6.318   0.193   7.326  0.00  0.00     0.052 A 
ATOM     73  C   UNL d   1       5.638  -0.408   7.745  0.00  0.00     0.099 A 
ATOM     74  C   UNL d   1       5.928  -1.132   8.372  0.00  0.00     0.098 A 
ATOM     75  C   UNL d   1       6.899  -1.254   8.580  0.00  0.00     0.040 A 
ATOM     76  C   UNL d   1       7.579  -0.653   8.161  0.00  0.00     0.015 A 
BRANCH  73  77
ATOM     77  O   UNL d   1       4.668  -0.286   7.537  0.00  0.00    -0.358 OA
ATOM     78  H   UNL d   1       4.239  -0.562   7.890  0.00  0.00     0.217 HD
ENDBRANCH  73  77
BRANCH  74  79
ATOM     79  O   UNL d   1       5.247  -1.734   8.791  0.00  0.00    -0.358 OA
ATOM     80  H   UNL d   1       4.972  -1.568   9.321  0.00  0.00     0.217 HD
ENDBRANCH  74  79
ENDBRANCH  16  71
BRANCH  10  81
ATOM     81  O   UNL d   1       7.648   1.339   8.395  0.00  0.00    -0.389 OA
ATOM     82  H   UNL d   1       7.322   0.918   8.713  0.00  0.00     0.210 HD
ENDBRANCH  10  81
BRANCH  13  83
ATOM     83  O   UNL d   1      11.545   5.456   6.761  0.00  0.00    -0.389 OA
ATOM     84  H   UNL d   1      11.994   5.839   6.949  0.00  0.00     0.210 HD
ENDBRANCH  13  83
BRANCH  25  85
ATOM     85  O   UNL d   1       9.494   3.822   8.226  0.00  0.00    -0.360 OA
ATOM     86  H   UNL d   1       9.605   3.830   7.616  0.00  0.00     0.217 HD
ENDBRANCH  25  85
BRANCH  15  87
ATOM     87  C   UNL d   1      12.305   5.188   5.224  0.00  0.00     0.010 A 
ATOM     88  C   UNL d   1      13.142   5.172   5.771  0.00  0.00     0.052 A 
ATOM     89  C   UNL d   1      13.529   6.028   6.116  0.00  0.00     0.099 A 
ATOM     90  C   UNL d   1      13.079   6.897   5.914  0.00  0.00     0.098 A 
ATOM     91  C   UNL d   1      12.243   6.913   5.367  0.00  0.00     0.040 A 
ATOM     92  C   UNL d   1      11.856   6.057   5.022  0.00  0.00     0.015 A 
BRANCH  89  93
ATOM     93  O   UNL d   1      14.366   6.013   6.664  0.00  0.00    -0.358 OA
ATOM     94  H   UNL d   1      14.577   6.536   6.921  0.00  0.00     0.217 HD
ENDBRANCH  89  93
BRANCH  90  95
ATOM     95  O   UNL d   1      13.467   7.753   6.259  0.00  0.00    -0.358 OA
ATOM     96  H   UNL d   1      13.824   7.749   6.766  0.00  0.00     0.217 HD
ENDBRANCH  90  95
ENDBRANCH  15  87
BRANCH  26  97
ATOM     97  O   UNL d   1      11.382   1.694   2.750  0.00  0.00    -0.360 OA
ATOM     98  H   UNL d   1      10.798   1.724   2.542  0.00  0.00     0.217 HD
ENDBRANCH  26  97
BRANCH  31  99
ATOM     99  O   UNL d   1       7.368   2.983  10.716  0.00  0.00    -0.361 OA
ATOM    100  H   UNL d   1       7.615   3.425  11.074  0.00  0.00     0.217 HD
ENDBRANCH  31  99
BRANCH  32 101
ATOM    101  O   UNL d   1      13.756   3.165   0.577  0.00  0.00    -0.361 OA
ATOM    102  H   UNL d   1      13.579   3.522   0.102  0.00  0.00     0.217 HD
ENDBRANCH  32 101
TORSDOF 23
ENDMDL
MODEL 3
REMARK VINA RESULT:    -9.641      1.951      5.415
REMARK INTER + INTRA:          52.282
REMARK INTER:                 -17.795
REMARK INTRA:                  70.077
REMARK UNBOUND:                69.813
REMARK  23 active torsions:
REMARK  status: ('A' for Active; 'I' for Inactive)
REMARK    1  A    between atoms: C_29  and  O_6 
REMARK    2  A    between atoms: C_32  and  O_7 
REMARK    3  A    between atoms: C_38  and  O_8 
REMARK    4  A    between atoms: O_10  and  C_47 
REMARK    5  A    between atoms: O_11  and  C_48 
REMARK    6  A    between atoms: O_12  and  C_51 
REMARK    7  A    between atoms: O_13  and  C_62 
REMARK    8  A    between atoms: O_14  and  C_63 
REMARK    9  A    between atoms: C_65  and  O_15 
REMARK   10  A    between atoms: O_16  and  C_69 
REMARK   11  A    between atoms: O_17  and  C_70 
REMARK   12  A    between atoms: O_18  and  C_71 
REMARK   13  A    between atoms: O_19  and  C_74 
REMARK   14  A    between atoms: O_20  and  C_75 
REMARK   15  A    between atoms: O_21  and  C_76 
REMARK   16  A    between atoms: O_22  and  C_79 
REMARK   17  A    between atoms: O_23  and  C_82 
REMARK   18  A    between atoms: O_24  and  C_84 
REMARK   19  A    between atoms: C_34  and  C_45 
REMARK   20  A    between atoms: C_35  and  C_46 
REMARK   21  A    between atoms: C_36  and  C_42 
REMARK   22  A    between atoms: C_41  and  C_49 
REMARK   23  A    between atoms: C_64  and  C_77 
ROOT
ATOM      1  O   UNL d   1       9.568   4.208   6.343  0.00  0.00    -0.305 OA
ATOM      2  O   UNL d   1      11.125   2.920   3.240  0.00  0.00    -0.305 OA
ATOM      3  O   UNL d   1       8.708   1.039   5.294  0.00  0.00    -0.337 OA
ATOM      4  O   UNL d   1      12.221   4.690   2.962  0.00  0.00    -0.306 OA
ATOM      5  O   UNL d   1       7.286   2.694   8.470  0.00  0.00    -0.306 OA
ATOM      6  C   UNL d   1      10.969   4.562   4.629  0.00  0.00     0.097 A 
ATOM      7  C   UNL d   1       8.415   2.863   7.005  0.00  0.00     0.097 A 
ATOM      8  C   UNL d   1      10.400   3.650   4.778  0.00  0.00     0.022 A 
ATOM      9  C   UNL d   1       9.237   2.736   5.760  0.00  0.00     0.021 A 
ATOM     10  C   UNL d   1      11.625   4.648   3.769  0.00  0.00     0.199 A 
ATOM     11  C   UNL d   1       9.770   3.567   5.603  0.00  0.00     0.092 A 
ATOM     12  C   UNL d   1       9.920   1.991   4.271  0.00  0.00     0.021 A 
ATOM     13  C   UNL d   1       8.686   4.642   7.890  0.00  0.00     0.199 A 
ATOM     14  C   UNL d   1      10.475   2.857   4.108  0.00  0.00     0.092 A 
ATOM     15  C   UNL d   1       8.223   3.516   7.738  0.00  0.00     0.231 A 
ATOM     16  C   UNL d   1      11.704   3.822   3.070  0.00  0.00     0.231 A 
ATOM     17  C   UNL d   1       9.998   1.165   3.572  0.00  0.00     0.094 A 
ATOM     18  C   UNL d   1       9.296   1.930   5.103  0.00  0.00     0.089 A 
ATOM     19  C   UNL d   1       9.419   0.263   3.743  0.00  0.00     0.165 A 
ATOM     20  C   UNL d   1      11.525   5.391   4.438  0.00  0.00     0.020 A 
ATOM     21  C   UNL d   1       7.595   1.638   7.283  0.00  0.00     0.020 A 
ATOM     22  C   UNL d   1       8.770   0.200   4.609  0.00  0.00     0.192 A 
ATOM     23  C   UNL d   1      12.135   5.454   3.627  0.00  0.00     0.085 A 
ATOM     24  C   UNL d   1       7.070   1.781   8.122  0.00  0.00     0.085 A 
ATOM     25  C   UNL d   1      11.479   6.136   5.034  0.00  0.00     0.078 A 
ATOM     26  C   UNL d   1       7.520   0.745   6.752  0.00  0.00     0.078 A 
ATOM     27  C   UNL d   1      12.637   6.256   3.493  0.00  0.00     0.074 A 
ATOM     28  C   UNL d   1       6.434   1.042   8.488  0.00  0.00     0.074 A 
ATOM     29  C   UNL d   1      11.994   6.923   4.870  0.00  0.00     0.073 A 
ATOM     30  C   UNL d   1       6.890  -0.008   7.100  0.00  0.00     0.073 A 
ATOM     31  C   UNL d   1      12.567   6.983   4.108  0.00  0.00     0.071 A 
ATOM     32  C   UNL d   1       6.344   0.142   7.973  0.00  0.00     0.071 A 
ENDROOT
BRANCH  17  33
ATOM     33  C   UNL d   1      10.600   1.234   2.777  0.00  0.00     0.020 A 
ATOM     34  C   UNL d   1      11.540   0.895   2.830  0.00  0.00     0.088 A 
ATOM     35  O   UNL d   1      11.876   0.472   3.720  0.00  0.00    -0.337 OA
ATOM     36  C   UNL d   1      12.142   0.964   2.035  0.00  0.00     0.012 A 
ATOM     37  C   UNL d   1      12.854   0.117   3.783  0.00  0.00     0.191 A 
ATOM     38  C   UNL d   1      13.481   0.189   2.955  0.00  0.00     0.156 A 
ATOM     39  C   UNL d   1      13.123   0.616   2.075  0.00  0.00     0.079 A 
ATOM     40  C   UNL d   1      11.805   1.373   1.187  0.00  0.00     0.077 A 
ATOM     41  C   UNL d   1      10.866   1.712   1.133  0.00  0.00     0.074 A 
ATOM     42  C   UNL d   1      10.263   1.643   1.928  0.00  0.00     0.078 A 
BRANCH  37  43
ATOM     43  C   UNL d   1      13.187  -0.291   4.634  0.00  0.00    -0.024 A 
ATOM     44  C   UNL d   1      13.654   0.277   5.310  0.00  0.00     0.049 A 
ATOM     45  C   UNL d   1      13.987  -0.129   6.161  0.00  0.00     0.099 A 
ATOM     46  C   UNL d   1      13.853  -1.105   6.334  0.00  0.00     0.098 A 
ATOM     47  C   UNL d   1      13.386  -1.673   5.657  0.00  0.00     0.040 A 
ATOM     48  C   UNL d   1      13.052  -1.266   4.806  0.00  0.00     0.013 A 
BRANCH  45  49
ATOM     49  O   UNL d   1      14.455   0.439   6.838  0.00  0.00    -0.358 OA
ATOM     50  H   UNL d   1      15.067   0.526   6.799  0.00  0.00     0.217 HD
ENDBRANCH  45  49
BRANCH  46  51
ATOM     51  O   UNL d   1      14.186  -1.513   7.185  0.00  0.00    -0.358 OA
ATOM     52  H   UNL d   1      14.703  -1.855   7.182  0.00  0.00     0.217 HD
ENDBRANCH  46  51
ENDBRANCH  37  43
BRANCH  38  53
ATOM     53  O   UNL d   1      14.421  -0.149   3.004  0.00  0.00    -0.392 OA
ATOM     54  H   UNL d   1      14.542  -0.688   3.284  0.00  0.00     0.210 HD
ENDBRANCH  38  53
BRANCH  40  55
ATOM     55  O   UNL d   1      12.408   1.443   0.391  0.00  0.00    -0.360 OA
ATOM     56  H   UNL d   1      12.838   1.008   0.289  0.00  0.00     0.217 HD
ENDBRANCH  40  55
BRANCH  42  57
ATOM     57  O   UNL d   1       9.445   1.725   2.497  0.00  0.00    -0.360 OA
ATOM     58  H   UNL d   1       9.467   2.049   3.025  0.00  0.00     0.217 HD
ENDBRANCH  42  57
ENDBRANCH  17  33
BRANCH  19  59
ATOM     59  O   UNL d   1       9.484  -0.505   3.105  0.00  0.00    -0.392 OA
ATOM     60  H   UNL d   1       9.670  -1.061   3.306  0.00  0.00     0.210 HD
ENDBRANCH  19  59
BRANCH  22  61
ATOM     61  C   UNL d   1       8.232  -0.627   4.776  0.00  0.00    -0.024 A 
ATOM     62  C   UNL d   1       8.635  -1.393   5.277  0.00  0.00     0.049 A 
ATOM     63  C   UNL d   1       8.097  -2.220   5.443  0.00  0.00     0.099 A 
ATOM     64  C   UNL d   1       7.157  -2.280   5.108  0.00  0.00     0.098 A 
ATOM     65  C   UNL d   1       6.754  -1.514   4.607  0.00  0.00     0.040 A 
ATOM     66  C   UNL d   1       7.292  -0.687   4.441  0.00  0.00     0.013 A 
BRANCH  63  67
ATOM     67  O   UNL d   1       8.499  -2.986   5.944  0.00  0.00    -0.358 OA
ATOM     68  H   UNL d   1       8.308  -3.564   5.832  0.00  0.00     0.217 HD
ENDBRANCH  63  67
BRANCH  64  69
ATOM     69  O   UNL d   1       6.618  -3.106   5.274  0.00  0.00    -0.358 OA
ATOM     70  H   UNL d   1       6.457  -3.472   4.801  0.00  0.00     0.217 HD
ENDBRANCH  64  69
ENDBRANCH  22  61
BRANCH  16  71
ATOM     71  C   UNL d   1      12.312   3.916   2.282  0.00  0.00     0.010 A 
ATOM     72  C   UNL d   1      11.952   4.243   1.409  0.00  0.00     0.052 A 
ATOM     73  C   UNL d   1      12.560   4.336   0.621  0.00  0.00     0.099 A 
ATOM     74  C   UNL d   1      13.529   4.102   0.706  0.00  0.00     0.098 A 
ATOM     75  C   UNL d   1      13.889   3.775   1.580  0.00  0.00     0.040 A 
ATOM     76  C   UNL d   1      13.281   3.682   2.368  0.00  0.00     0.015 A 
BRANCH  73  77
ATOM     77  O   UNL d   1      12.200   4.663  -0.253  0.00  0.00    -0.358 OA
ATOM     78  H   UNL d   1      12.523   4.571  -0.774  0.00  0.00     0.217 HD
ENDBRANCH  73  77
BRANCH  74  79
ATOM     79  O   UNL d   1      14.138   4.195  -0.082  0.00  0.00    -0.358 OA
ATOM     80  H   UNL d   1      14.682   4.487  -0.020  0.00  0.00     0.217 HD
ENDBRANCH  74  79
ENDBRANCH  16  71
BRANCH  10  81
ATOM     81  O   UNL d   1      12.279   5.175   3.226  0.00  0.00    -0.389 OA
ATOM     82  H   UNL d   1      12.845   5.239   2.980  0.00  0.00     0.210 HD
ENDBRANCH  10  81
BRANCH  13  83
ATOM     83  O   UNL d   1       8.997   5.566   8.112  0.00  0.00    -0.389 OA
ATOM     84  H   UNL d   1       9.591   5.723   8.028  0.00  0.00     0.210 HD
ENDBRANCH  13  83
BRANCH  25  85
ATOM     85  O   UNL d   1      10.885   6.092   5.837  0.00  0.00    -0.360 OA
ATOM     86  H   UNL d   1      10.969   6.487   6.307  0.00  0.00     0.217 HD
ENDBRANCH  25  85
BRANCH  15  87
ATOM     87  C   UNL d   1       8.032   4.168   8.471  0.00  0.00     0.010 A 
ATOM     88  C   UNL d   1       8.380   4.000   9.393  0.00  0.00     0.052 A 
ATOM     89  C   UNL d   1       8.189   4.652  10.126  0.00  0.00     0.099 A 
ATOM     90  C   UNL d   1       7.650   5.473   9.937  0.00  0.00     0.098 A 
ATOM     91  C   UNL d   1       7.302   5.642   9.015  0.00  0.00     0.040 A 
ATOM     92  C   UNL d   1       7.493   4.989   8.282  0.00  0.00     0.015 A 
BRANCH  89  93
ATOM     93  O   UNL d   1       8.537   4.485  11.049  0.00  0.00    -0.358 OA
ATOM     94  H   UNL d   1       8.442   4.903  11.497  0.00  0.00     0.217 HD
ENDBRANCH  89  93
BRANCH  90  95
ATOM     95  O   UNL d   1       7.459   6.126  10.670  0.00  0.00    -0.358 OA
ATOM     96  H   UNL d   1       7.355   5.922  11.248  0.00  0.00     0.217 HD
ENDBRANCH  90  95
ENDBRANCH  15  87
BRANCH  26  97
ATOM     97  O   UNL d   1       8.050   0.613   5.915  0.00  0.00    -0.360 OA
ATOM     98  H   UNL d   1       7.924   0.953   5.411  0.00  0.00     0.217 HD
ENDBRANCH  26  97
BRANCH  31  99
ATOM     99  O   UNL d   1      13.100   7.814   3.953  0.00  0.00    -0.361 OA
ATOM    100  H   UNL d   1      12.876   8.364   4.131  0.00  0.00     0.217 HD
ENDBRANCH  31  99
BRANCH  32 101
ATOM    101  O   UNL d   1       5.737  -0.575   8.316  0.00  0.00    -0.361 OA
ATOM    102  H   UNL d   1       5.137  -0.453   8.412  0.00  0.00     0.217 HD
ENDBRANCH  32 101
TORSDOF 23
ENDMDL
MODEL 4
REMARK VINA RESULT:    -8.894      1.554      5.244
REMARK INTER + INTRA:          53.640
REMARK INTER:                 -16.207
REMARK INTRA:                  69.847
REMARK UNBOUND:                69.813
REMARK  23 active torsions:
REMARK  status: ('A' for Active; 'I' for Inactive)
REMARK    1  A    between atoms: C_29  and  O_6 
REMARK    2  A    between atoms: C_32  and  O_7 
REMARK    3  A    between atoms: C_38  and  O_8 
REMARK    4  A    between atoms: O_10  and  C_47 
REMARK    5  A    between atoms: O_11  and  C_48 
REMARK    6  A    between atoms: O_12  and  C_51 
REMARK    7  A    between atoms: O_13  and  C_62 
REMARK    8  A    between atoms: O_14  and  C_63 
REMARK    9  A    between atoms: C_65  and  O_15 
REMARK   10  A    between atoms: O_16  and  C_69 
REMARK   11  A    between atoms: O_17  and  C_70 
REMARK   12  A    between atoms: O_18  and  C_71 
REMARK   13  A    between atoms: O_19  and  C_74 
REMARK   14  A    between atoms: O_20  and  C_75 
REMARK   15  A    between atoms: O_21  and  C_76 
REMARK   16  A    between atoms: O_22  and  C_79 
REMARK   17  A    between atoms: O_23  and  C_82 
REMARK   18  A    between atoms: O_24  and  C_84 
REMARK   19  A    between atoms: C_34  and  C_45 
REMARK   20  A    between atoms: C_35  and  C_46 
REMARK   21  A    between atoms: C_36  and  C_42 
REMARK   22  A    between atoms: C_41  and  C_49 
REMARK   23  A    between atoms: C_64  and  C_77 
ROOT
ATOM      1  O   UNL d   1      10.119   4.172   4.612  0.00  0.00    -0.305 OA
ATOM      2  O   UNL d   1      11.218   1.360   2.467  0.00  0.00    -0.305 OA
ATOM      3  O   UNL d   1       9.134   0.985   5.486  0.00  0.00    -0.337 OA
ATOM      4  O   UNL d   1      12.252   2.650   1.171  0.00  0.00    -0.306 OA
ATOM      5  O   UNL d   1       8.177   4.139   7.484  0.00  0.00    -0.306 OA
ATOM      6  C   UNL d   1      11.255   3.490   2.803  0.00  0.00     0.097 A 
ATOM      7  C   UNL d   1       9.081   3.447   6.017  0.00  0.00     0.097 A 
ATOM      8  C   UNL d   1      10.719   2.829   3.476  0.00  0.00     0.022 A 
ATOM      9  C   UNL d   1       9.715   2.638   4.929  0.00  0.00     0.021 A 
ATOM     10  C   UNL d   1      11.779   3.073   1.950  0.00  0.00     0.199 A 
ATOM     11  C   UNL d   1      10.215   3.228   4.296  0.00  0.00     0.092 A 
ATOM     12  C   UNL d   1      10.180   1.184   3.973  0.00  0.00     0.021 A 
ATOM     13  C   UNL d   1       9.468   5.403   5.802  0.00  0.00     0.199 A 
ATOM     14  C   UNL d   1      10.701   1.800   3.315  0.00  0.00     0.092 A 
ATOM     15  C   UNL d   1       8.994   4.396   6.320  0.00  0.00     0.231 A 
ATOM     16  C   UNL d   1      11.761   2.002   1.780  0.00  0.00     0.231 A 
ATOM     17  C   UNL d   1      10.162   0.113   3.804  0.00  0.00     0.094 A 
ATOM     18  C   UNL d   1       9.683   1.606   4.787  0.00  0.00     0.089 A 
ATOM     19  C   UNL d   1       9.619  -0.528   4.492  0.00  0.00     0.165 A 
ATOM     20  C   UNL d   1      11.773   4.059   2.140  0.00  0.00     0.020 A 
ATOM     21  C   UNL d   1       8.317   2.603   6.994  0.00  0.00     0.020 A 
ATOM     22  C   UNL d   1       9.102  -0.089   5.338  0.00  0.00     0.192 A 
ATOM     23  C   UNL d   1      12.259   3.651   1.346  0.00  0.00     0.085 A 
ATOM     24  C   UNL d   1       7.918   3.195   7.693  0.00  0.00     0.085 A 
ATOM     25  C   UNL d   1      11.809   5.007   2.260  0.00  0.00     0.078 A 
ATOM     26  C   UNL d   1       8.172   1.572   7.020  0.00  0.00     0.078 A 
ATOM     27  C   UNL d   1      12.731   4.231   0.751  0.00  0.00     0.074 A 
ATOM     28  C   UNL d   1       7.347   2.798   8.468  0.00  0.00     0.074 A 
ATOM     29  C   UNL d   1      12.291   5.557   1.647  0.00  0.00     0.073 A 
ATOM     30  C   UNL d   1       7.603   1.152   7.786  0.00  0.00     0.073 A 
ATOM     31  C   UNL d   1      12.748   5.174   0.900  0.00  0.00     0.071 A 
ATOM     32  C   UNL d   1       7.188   1.770   8.515  0.00  0.00     0.071 A 
ENDROOT
BRANCH  17  33
ATOM     33  C   UNL d   1      10.641  -0.281   3.021  0.00  0.00     0.020 A 
ATOM     34  C   UNL d   1      11.584  -0.602   3.122  0.00  0.00     0.088 A 
ATOM     35  O   UNL d   1      12.050  -0.519   4.049  0.00  0.00    -0.337 OA
ATOM     36  C   UNL d   1      12.065  -0.996   2.339  0.00  0.00     0.012 A 
ATOM     37  C   UNL d   1      13.032  -0.852   4.162  0.00  0.00     0.191 A 
ATOM     38  C   UNL d   1      13.532  -1.262   3.346  0.00  0.00     0.156 A 
ATOM     39  C   UNL d   1      13.045  -1.334   2.428  0.00  0.00     0.079 A 
ATOM     40  C   UNL d   1      11.603  -1.068   1.454  0.00  0.00     0.077 A 
ATOM     41  C   UNL d   1      10.662  -0.748   1.353  0.00  0.00     0.074 A 
ATOM     42  C   UNL d   1      10.181  -0.354   2.137  0.00  0.00     0.078 A 
BRANCH  37  43
ATOM     43  C   UNL d   1      13.489  -0.777   5.048  0.00  0.00    -0.024 A 
ATOM     44  C   UNL d   1      13.999   0.051   5.279  0.00  0.00     0.049 A 
ATOM     45  C   UNL d   1      14.457   0.127   6.165  0.00  0.00     0.099 A 
ATOM     46  C   UNL d   1      14.404  -0.627   6.820  0.00  0.00     0.098 A 
ATOM     47  C   UNL d   1      13.894  -1.455   6.589  0.00  0.00     0.040 A 
ATOM     48  C   UNL d   1      13.436  -1.531   5.703  0.00  0.00     0.013 A 
BRANCH  45  49
ATOM     49  O   UNL d   1      14.966   0.956   6.395  0.00  0.00    -0.358 OA
ATOM     50  H   UNL d   1      15.078   1.096   6.989  0.00  0.00     0.217 HD
ENDBRANCH  45  49
BRANCH  46  51
ATOM     51  O   UNL d   1      14.861  -0.552   7.706  0.00  0.00    -0.358 OA
ATOM     52  H   UNL d   1      14.990  -1.063   8.033  0.00  0.00     0.217 HD
ENDBRANCH  46  51
ENDBRANCH  37  43
BRANCH  38  53
ATOM     53  O   UNL d   1      14.474  -1.584   3.443  0.00  0.00    -0.392 OA
ATOM     54  H   UNL d   1      14.642  -1.905   3.946  0.00  0.00     0.210 HD
ENDBRANCH  38  53
BRANCH  40  55
ATOM     55  O   UNL d   1      12.084  -1.462   0.670  0.00  0.00    -0.360 OA
ATOM     56  H   UNL d   1      12.703  -1.426   0.635  0.00  0.00     0.217 HD
ENDBRANCH  40  55
BRANCH  42  57
ATOM     57  O   UNL d   1       9.452   0.065   2.678  0.00  0.00    -0.360 OA
ATOM     58  H   UNL d   1       9.400  -0.067   3.281  0.00  0.00     0.217 HD
ENDBRANCH  42  57
ENDBRANCH  17  33
BRANCH  19  59
ATOM     59  O   UNL d   1       9.595  -1.517   4.345  0.00  0.00    -0.392 OA
ATOM     60  H   UNL d   1       9.956  -1.775   3.912  0.00  0.00     0.210 HD
ENDBRANCH  19  59
BRANCH  22  61
ATOM     61  C   UNL d   1       8.598  -0.671   5.978  0.00  0.00    -0.024 A 
ATOM     62  C   UNL d   1       7.638  -0.888   5.805  0.00  0.00     0.049 A 
ATOM     63  C   UNL d   1       7.134  -1.470   6.444  0.00  0.00     0.099 A 
ATOM     64  C   UNL d   1       7.592  -1.833   7.255  0.00  0.00     0.098 A 
ATOM     65  C   UNL d   1       8.552  -1.616   7.428  0.00  0.00     0.040 A 
ATOM     66  C   UNL d   1       9.056  -1.034   6.788  0.00  0.00     0.013 A 
BRANCH  63  67
ATOM     67  O   UNL d   1       6.174  -1.688   6.272  0.00  0.00    -0.358 OA
ATOM     68  H   UNL d   1       5.728  -1.401   6.593  0.00  0.00     0.217 HD
ENDBRANCH  63  67
BRANCH  64  69
ATOM     69  O   UNL d   1       7.089  -2.415   7.895  0.00  0.00    -0.358 OA
ATOM     70  H   UNL d   1       7.166  -2.343   8.506  0.00  0.00     0.217 HD
ENDBRANCH  64  69
ENDBRANCH  22  61
BRANCH  16  71
ATOM     71  C   UNL d   1      12.249   1.632   0.990  0.00  0.00     0.010 A 
ATOM     72  C   UNL d   1      11.765   1.490   0.126  0.00  0.00     0.052 A 
ATOM     73  C   UNL d   1      12.253   1.120  -0.664  0.00  0.00     0.099 A 
ATOM     74  C   UNL d   1      13.224   0.891  -0.591  0.00  0.00     0.098 A 
ATOM     75  C   UNL d   1      13.707   1.033   0.273  0.00  0.00     0.040 A 
ATOM     76  C   UNL d   1      13.219   1.403   1.063  0.00  0.00     0.015 A 
BRANCH  73  77
ATOM     77  O   UNL d   1      11.770   0.978  -1.529  0.00  0.00    -0.358 OA
ATOM     78  H   UNL d   1      12.018   1.183  -2.059  0.00  0.00     0.217 HD
ENDBRANCH  73  77
BRANCH  74  79
ATOM     79  O   UNL d   1      13.712   0.521  -1.382  0.00  0.00    -0.358 OA
ATOM     80  H   UNL d   1      13.599  -0.058  -1.573  0.00  0.00     0.217 HD
ENDBRANCH  74  79
ENDBRANCH  16  71
BRANCH  10  81
ATOM     81  O   UNL d   1      12.345   3.196   1.134  0.00  0.00    -0.389 OA
ATOM     82  H   UNL d   1      12.438   3.456   0.579  0.00  0.00     0.210 HD
ENDBRANCH  10  81
BRANCH  13  83
ATOM     83  O   UNL d   1       9.802   6.285   5.469  0.00  0.00    -0.389 OA
ATOM     84  H   UNL d   1      10.394   6.445   5.558  0.00  0.00     0.210 HD
ENDBRANCH  13  83
BRANCH  25  85
ATOM     85  O   UNL d   1      11.337   5.425   3.036  0.00  0.00    -0.360 OA
ATOM     86  H   UNL d   1      11.664   5.698   3.487  0.00  0.00     0.217 HD
ENDBRANCH  25  85
BRANCH  15  87
ATOM     87  C   UNL d   1       8.907   5.345   6.623  0.00  0.00     0.010 A 
ATOM     88  C   UNL d   1       9.538   5.710   7.307  0.00  0.00     0.052 A 
ATOM     89  C   UNL d   1       9.451   6.660   7.610  0.00  0.00     0.099 A 
ATOM     90  C   UNL d   1       8.733   7.242   7.228  0.00  0.00     0.098 A 
ATOM     91  C   UNL d   1       8.103   6.877   6.544  0.00  0.00     0.040 A 
ATOM     92  C   UNL d   1       8.190   5.928   6.241  0.00  0.00     0.015 A 
BRANCH  89  93
ATOM     93  O   UNL d   1      10.081   7.026   8.295  0.00  0.00    -0.358 OA
ATOM     94  H   UNL d   1      10.579   7.349   8.116  0.00  0.00     0.217 HD
ENDBRANCH  89  93
BRANCH  90  95
ATOM     95  O   UNL d   1       8.646   8.192   7.531  0.00  0.00    -0.358 OA
ATOM     96  H   UNL d   1       8.745   8.655   7.131  0.00  0.00     0.217 HD
ENDBRANCH  90  95
ENDBRANCH  15  87
BRANCH  26  97
ATOM     97  O   UNL d   1       8.575   0.989   6.316  0.00  0.00    -0.360 OA
ATOM     98  H   UNL d   1       8.376   1.028   5.729  0.00  0.00     0.217 HD
ENDBRANCH  26  97
BRANCH  31  99
ATOM     99  O   UNL d   1      13.247   5.766   0.268  0.00  0.00    -0.361 OA
ATOM    100  H   UNL d   1      13.543   6.268   0.481  0.00  0.00     0.217 HD
ENDBRANCH  31  99
BRANCH  32 101
ATOM    101  O   UNL d   1       6.641   1.378   9.254  0.00  0.00    -0.361 OA
ATOM    102  H   UNL d   1       6.913   1.038   9.694  0.00  0.00     0.217 HD
ENDBRANCH  32 101
TORSDOF 23
ENDMDL
MODEL 5
REMARK VINA RESULT:    -8.671      2.498      6.715
REMARK INTER + INTRA:          54.044
REMARK INTER:                 -15.884
REMARK INTRA:                  69.928
REMARK UNBOUND:                69.813
REMARK  23 active torsions:
REMARK  status: ('A' for Active; 'I' for Inactive)
REMARK    1  A    between atoms: C_29  and  O_6 
REMARK    2  A    between atoms: C_32  and  O_7 
REMARK    3  A    between atoms: C_38  and  O_8 
REMARK    4  A    between atoms: O_10  and  C_47 
REMARK    5  A    between atoms: O_11  and  C_48 
REMARK    6  A    between atoms: O_12  and  C_51 
REMARK    7  A    between atoms: O_13  and  C_62 
REMARK    8  A    between atoms: O_14  and  C_63 
REMARK    9  A    between atoms: C_65  and  O_15 
REMARK   10  A    between atoms: O_16  and  C_69 
REMARK   11  A    between atoms: O_17  and  C_70 
REMARK   12  A    between atoms: O_18  and  C_71 
REMARK   13  A    between atoms: O_19  and  C_74 
REMARK   14  A    between atoms: O_20  and  C_75 
REMARK   15  A    between atoms: O_21  and  C_76 
REMARK   16  A    between atoms: O_22  and  C_79 
REMARK   17  A    between atoms: O_23  and  C_82 
REMARK   18  A    between atoms: O_24  and  C_84 
REMARK   19  A    between atoms: C_34  and  C_45 
REMARK   20  A    between atoms: C_35  and  C_46 
REMARK   21  A    between atoms: C_36  and  C_42 
REMARK   22  A    between atoms: C_41  and  C_49 
REMARK   23  A    between atoms: C_64  and  C_77 
ROOT
ATOM      1  O   UNL d   1      10.247  -0.313   2.799  0.00  0.00    -0.305 OA
ATOM      2  O   UNL d   1       9.023  -3.356   4.518  0.00  0.00    -0.305 OA
ATOM      3  O   UNL d   1       8.671   0.068   5.842  0.00  0.00    -0.337 OA
ATOM      4  O   UNL d   1       9.715  -4.602   2.975  0.00  0.00    -0.306 OA
ATOM      5  O   UNL d   1      10.067   3.008   3.778  0.00  0.00    -0.306 OA
ATOM      6  C   UNL d   1      10.024  -2.544   2.789  0.00  0.00     0.097 A 
ATOM      7  C   UNL d   1       9.820   1.170   3.890  0.00  0.00     0.097 A 
ATOM      8  C   UNL d   1       9.669  -1.896   3.584  0.00  0.00     0.022 A 
ATOM      9  C   UNL d   1       9.494  -0.251   4.229  0.00  0.00     0.021 A 
ATOM     10  C   UNL d   1       9.873  -3.616   2.867  0.00  0.00     0.199 A 
ATOM     11  C   UNL d   1       9.813  -0.867   3.510  0.00  0.00     0.092 A 
ATOM     12  C   UNL d   1       8.853  -1.646   5.169  0.00  0.00     0.021 A 
ATOM     13  C   UNL d   1      10.769   1.310   2.129  0.00  0.00     0.199 A 
ATOM     14  C   UNL d   1       9.186  -2.287   4.419  0.00  0.00     0.092 A 
ATOM     15  C   UNL d   1      10.257   1.710   3.171  0.00  0.00     0.231 A 
ATOM     16  C   UNL d   1       9.370  -4.025   3.737  0.00  0.00     0.231 A 
ATOM     17  C   UNL d   1       8.349  -2.055   6.039  0.00  0.00     0.094 A 
ATOM     18  C   UNL d   1       9.009  -0.620   5.073  0.00  0.00     0.089 A 
ATOM     19  C   UNL d   1       8.003  -1.385   6.820  0.00  0.00     0.165 A 
ATOM     20  C   UNL d   1      10.335  -3.200   2.078  0.00  0.00     0.020 A 
ATOM     21  C   UNL d   1       9.360   2.135   4.943  0.00  0.00     0.020 A 
ATOM     22  C   UNL d   1       8.165  -0.318   6.720  0.00  0.00     0.192 A 
ATOM     23  C   UNL d   1      10.185  -4.201   2.168  0.00  0.00     0.085 A 
ATOM     24  C   UNL d   1       9.604   3.063   4.663  0.00  0.00     0.085 A 
ATOM     25  C   UNL d   1      10.782  -2.873   1.299  0.00  0.00     0.078 A 
ATOM     26  C   UNL d   1       8.864   1.961   5.842  0.00  0.00     0.078 A 
ATOM     27  C   UNL d   1      10.497  -4.775   1.470  0.00  0.00     0.074 A 
ATOM     28  C   UNL d   1       9.369   3.882   5.262  0.00  0.00     0.074 A 
ATOM     29  C   UNL d   1      11.081  -3.474   0.621  0.00  0.00     0.073 A 
ATOM     30  C   UNL d   1       8.620   2.765   6.458  0.00  0.00     0.073 A 
ATOM     31  C   UNL d   1      10.940  -4.415   0.705  0.00  0.00     0.071 A 
ATOM     32  C   UNL d   1       8.874   3.732   6.166  0.00  0.00     0.071 A 
ENDROOT
BRANCH  17  33
ATOM     33  C   UNL d   1       8.206  -3.040   6.119  0.00  0.00     0.020 A 
ATOM     34  C   UNL d   1       8.869  -3.603   6.614  0.00  0.00     0.088 A 
ATOM     35  O   UNL d   1       9.703  -3.148   7.038  0.00  0.00    -0.337 OA
ATOM     36  C   UNL d   1       8.726  -4.589   6.695  0.00  0.00     0.012 A 
ATOM     37  C   UNL d   1      10.398  -3.728   7.555  0.00  0.00     0.191 A 
ATOM     38  C   UNL d   1      10.249  -4.754   7.639  0.00  0.00     0.156 A 
ATOM     39  C   UNL d   1       9.407  -5.188   7.206  0.00  0.00     0.079 A 
ATOM     40  C   UNL d   1       7.919  -5.013   6.282  0.00  0.00     0.077 A 
ATOM     41  C   UNL d   1       7.256  -4.451   5.788  0.00  0.00     0.074 A 
ATOM     42  C   UNL d   1       7.400  -3.464   5.707  0.00  0.00     0.078 A 
BRANCH  37  43
ATOM     43  C   UNL d   1      11.204  -3.300   7.966  0.00  0.00    -0.024 A 
ATOM     44  C   UNL d   1      11.140  -2.889   8.875  0.00  0.00     0.049 A 
ATOM     45  C   UNL d   1      11.945  -2.460   9.288  0.00  0.00     0.099 A 
ATOM     46  C   UNL d   1      12.812  -2.444   8.790  0.00  0.00     0.098 A 
ATOM     47  C   UNL d   1      12.875  -2.855   7.881  0.00  0.00     0.040 A 
ATOM     48  C   UNL d   1      12.070  -3.283   7.469  0.00  0.00     0.013 A 
BRANCH  45  49
ATOM     49  O   UNL d   1      11.881  -2.049  10.197  0.00  0.00    -0.358 OA
ATOM     50  H   UNL d   1      12.362  -2.085  10.588  0.00  0.00     0.217 HD
ENDBRANCH  45  49
BRANCH  46  51
ATOM     51  O   UNL d   1      13.617  -2.016   9.202  0.00  0.00    -0.358 OA
ATOM     52  H   UNL d   1      13.970  -2.338   9.598  0.00  0.00     0.217 HD
ENDBRANCH  46  51
ENDBRANCH  37  43
BRANCH  38  53
ATOM     53  O   UNL d   1      10.910  -5.321   8.132  0.00  0.00    -0.392 OA
ATOM     54  H   UNL d   1      11.417  -5.528   7.843  0.00  0.00     0.210 HD
ENDBRANCH  38  53
BRANCH  40  55
ATOM     55  O   UNL d   1       7.776  -6.000   6.363  0.00  0.00    -0.360 OA
ATOM     56  H   UNL d   1       7.265  -6.218   6.640  0.00  0.00     0.217 HD
ENDBRANCH  40  55
BRANCH  42  57
ATOM     57  O   UNL d   1       7.244  -2.510   5.451  0.00  0.00    -0.360 OA
ATOM     58  H   UNL d   1       6.746  -2.358   5.113  0.00  0.00     0.217 HD
ENDBRANCH  42  57
ENDBRANCH  17  33
BRANCH  19  59
ATOM     59  O   UNL d   1       7.538  -1.751   7.626  0.00  0.00    -0.392 OA
ATOM     60  H   UNL d   1       7.275  -1.366   8.034  0.00  0.00     0.210 HD
ENDBRANCH  19  59
BRANCH  22  61
ATOM     61  C   UNL d   1       7.850   0.308   7.435  0.00  0.00    -0.024 A 
ATOM     62  C   UNL d   1       6.933   0.703   7.383  0.00  0.00     0.049 A 
ATOM     63  C   UNL d   1       6.618   1.329   8.098  0.00  0.00     0.099 A 
ATOM     64  C   UNL d   1       7.220   1.558   8.862  0.00  0.00     0.098 A 
ATOM     65  C   UNL d   1       8.137   1.163   8.913  0.00  0.00     0.040 A 
ATOM     66  C   UNL d   1       8.452   0.538   8.199  0.00  0.00     0.013 A 
BRANCH  63  67
ATOM     67  O   UNL d   1       5.701   1.724   8.047  0.00  0.00    -0.358 OA
ATOM     68  H   UNL d   1       5.626   2.339   8.065  0.00  0.00     0.217 HD
ENDBRANCH  63  67
BRANCH  64  69
ATOM     69  O   UNL d   1       6.905   2.183   9.576  0.00  0.00    -0.358 OA
ATOM     70  H   UNL d   1       6.476   1.999   9.984  0.00  0.00     0.217 HD
ENDBRANCH  64  69
ENDBRANCH  22  61
BRANCH  16  71
ATOM     71  C   UNL d   1       9.238  -5.014   3.795  0.00  0.00     0.010 A 
ATOM     72  C   UNL d   1       8.387  -5.425   3.466  0.00  0.00     0.052 A 
ATOM     73  C   UNL d   1       8.255  -6.414   3.524  0.00  0.00     0.099 A 
ATOM     74  C   UNL d   1       8.973  -6.993   3.911  0.00  0.00     0.098 A 
ATOM     75  C   UNL d   1       9.823  -6.582   4.241  0.00  0.00     0.040 A 
ATOM     76  C   UNL d   1       9.955  -5.593   4.182  0.00  0.00     0.015 A 
BRANCH  73  77
ATOM     77  O   UNL d   1       7.405  -6.825   3.194  0.00  0.00    -0.358 OA
ATOM     78  H   UNL d   1       7.227  -6.738   2.607  0.00  0.00     0.217 HD
ENDBRANCH  73  77
BRANCH  74  79
ATOM     79  O   UNL d   1       8.841  -7.983   3.970  0.00  0.00    -0.358 OA
ATOM     80  H   UNL d   1       8.965  -8.281   4.499  0.00  0.00     0.217 HD
ENDBRANCH  74  79
ENDBRANCH  16  71
BRANCH  10  81
ATOM     81  O   UNL d   1       9.979  -4.537   2.491  0.00  0.00    -0.389 OA
ATOM     82  H   UNL d   1      10.086  -4.912   2.008  0.00  0.00     0.210 HD
ENDBRANCH  10  81
BRANCH  13  83
ATOM     83  O   UNL d   1      11.211   1.099   1.257  0.00  0.00    -0.389 OA
ATOM     84  H   UNL d   1      11.756   0.805   1.249  0.00  0.00     0.210 HD
ENDBRANCH  13  83
BRANCH  25  85
ATOM     85  O   UNL d   1      10.938  -1.891   1.194  0.00  0.00    -0.360 OA
ATOM     86  H   UNL d   1      10.981  -1.643   0.628  0.00  0.00     0.217 HD
ENDBRANCH  25  85
BRANCH  15  87
ATOM     87  C   UNL d   1      10.695   2.249   2.451  0.00  0.00     0.010 A 
ATOM     88  C   UNL d   1      11.655   2.513   2.539  0.00  0.00     0.052 A 
ATOM     89  C   UNL d   1      12.092   3.053   1.819  0.00  0.00     0.099 A 
ATOM     90  C   UNL d   1      11.569   3.327   1.012  0.00  0.00     0.098 A 
ATOM     91  C   UNL d   1      10.609   3.062   0.924  0.00  0.00     0.040 A 
ATOM     92  C   UNL d   1      10.171   2.523   1.644  0.00  0.00     0.015 A 
BRANCH  89  93
ATOM     93  O   UNL d   1      13.053   3.318   1.906  0.00  0.00    -0.358 OA
ATOM     94  H   UNL d   1      13.293   3.742   1.522  0.00  0.00     0.217 HD
ENDBRANCH  89  93
BRANCH  90  95
ATOM     95  O   UNL d   1      12.006   3.866   0.292  0.00  0.00    -0.358 OA
ATOM     96  H   UNL d   1      12.308   4.389   0.436  0.00  0.00     0.217 HD
ENDBRANCH  90  95
ENDBRANCH  15  87
BRANCH  26  97
ATOM     97  O   UNL d   1       8.625   1.029   6.113  0.00  0.00    -0.360 OA
ATOM     98  H   UNL d   1       8.267   0.933   6.610  0.00  0.00     0.217 HD
ENDBRANCH  26  97
BRANCH  31  99
ATOM     99  O   UNL d   1      11.259  -5.030  -0.016  0.00  0.00    -0.361 OA
ATOM    100  H   UNL d   1      11.594  -5.532   0.131  0.00  0.00     0.217 HD
ENDBRANCH  31  99
BRANCH  32 101
ATOM    101  O   UNL d   1       8.644   4.511   6.749  0.00  0.00    -0.361 OA
ATOM    102  H   UNL d   1       9.078   4.929   6.893  0.00  0.00     0.217 HD
ENDBRANCH  32 101
TORSDOF 23
ENDMDL
