MODEL 1
REMARK VINA RESULT:    -8.572      0.000      0.000
REMARK INTER + INTRA:          -3.142
REMARK INTER:                 -13.300
REMARK INTRA:                  10.158
REMARK UNBOUND:                10.442
REMARK  14 active torsions:
REMARK  status: ('A' for Active; 'I' for Inactive)
REMARK    1  A    between atoms: C_15  and  O_1 
REMARK    2  A    between atoms: C_18  and  O_1 
REMARK    3  A    between atoms: C_16  and  O_4 
REMARK    4  A    between atoms: C_20  and  O_5 
REMARK    5  A    between atoms: O_5  and  C_27 
REMARK    6  A    between atoms: C_17  and  O_6 
REMARK    7  A    between atoms: C_19  and  O_7 
REMARK    8  A    between atoms: C_22  and  O_8 
REMARK    9  A    between atoms: C_23  and  O_9 
REMARK   10  A    between atoms: O_10  and  C_25 
REMARK   11  A    between atoms: O_12  and  C_31 
REMARK   12  A    between atoms: O_14  and  C_41 
REMARK   13  A    between atoms: C_21  and  C_25 
REMARK   14  A    between atoms: C_34  and  C_36 
ROOT
ATOM      1  O   UNL d   1      12.434   0.843  16.883  0.00  0.00    -0.348 OA
ATOM      2  C   UNL d   1      12.052  -0.825  16.617  0.00  0.00     0.211 A 
ATOM      3  C   UNL d   1      12.902  -1.092  17.070  0.00  0.00     0.183 A 
ATOM      4  C   UNL d   1      13.518  -0.392  17.430  0.00  0.00     0.180 A 
ATOM      5  C   UNL d   1      11.817   0.142  16.524  0.00  0.00     0.298 A 
ATOM      6  C   UNL d   1      13.284   0.576  17.336  0.00  0.00     0.179 A 
ENDROOT
BRANCH   5   7
ATOM      7  O   UNL d   1      10.967   0.409  16.070  0.00  0.00    -0.318 OA
BRANCH   7   8
ATOM      8  C   UNL d   1      10.950   1.208  15.469  0.00  0.00     0.077 A 
ATOM      9  C   UNL d   1      11.109   1.099  14.445  0.00  0.00     0.075 A 
ATOM     10  C   UNL d   1      11.090   1.938  13.829  0.00  0.00     0.095 A 
ATOM     11  O   UNL d   1      11.243   1.824  12.847  0.00  0.00    -0.309 OA
ATOM     12  C   UNL d   1      10.920   2.848  14.206  0.00  0.00     0.081 A 
ATOM     13  C   UNL d   1      11.227   2.621  12.243  0.00  0.00     0.090 A 
ATOM     14  C   UNL d   1      11.058   3.531  12.621  0.00  0.00     0.094 A 
ATOM     15  C   UNL d   1      10.904   3.645  13.602  0.00  0.00     0.190 A 
ATOM     16  O   UNL d   1      10.735   4.555  13.980  0.00  0.00    -0.287 OA
ATOM     17  C   UNL d   1      10.759   2.982  15.227  0.00  0.00     0.085 A 
ATOM     18  C   UNL d   1      10.774   2.157  15.862  0.00  0.00     0.074 A 
BRANCH  13  19
ATOM     19  C   UNL d   1      11.381   2.508  11.261  0.00  0.00    -0.002 A 
ATOM     20  C   UNL d   1      12.264   2.177  10.928  0.00  0.00     0.017 A 
ATOM     21  C   UNL d   1      12.416   2.064   9.946  0.00  0.00     0.037 A 
ATOM     22  C   UNL d   1      11.687   2.282   9.298  0.00  0.00     0.065 A 
ATOM     23  C   UNL d   1      10.804   2.613   9.632  0.00  0.00     0.037 A 
ATOM     24  C   UNL d   1      10.651   2.726  10.613  0.00  0.00     0.017 A 
BRANCH  22  25
ATOM     25  O   UNL d   1      11.841   2.169   8.316  0.00  0.00    -0.361 OA
ATOM     26  H   UNL d   1      12.131   2.612   7.995  0.00  0.00     0.217 HD
ENDBRANCH  22  25
ENDBRANCH  13  19
BRANCH  17  27
ATOM     27  O   UNL d   1      10.590   3.897  15.594  0.00  0.00    -0.360 OA
ATOM     28  H   UNL d   1      11.044   4.320  15.591  0.00  0.00     0.217 HD
ENDBRANCH  17  27
ENDBRANCH   7   8
ENDBRANCH   5   7
BRANCH   2  29
ATOM     29  O   UNL d   1      11.435  -1.526  16.257  0.00  0.00    -0.346 OA
BRANCH  29  30
ATOM     30  C   UNL d   1      10.795  -1.991  16.869  0.00  0.00     0.292 A 
ATOM     31  O   UNL d   1      10.673  -1.664  17.807  0.00  0.00    -0.351 OA
ATOM     32  C   UNL d   1      10.033  -2.129  18.418  0.00  0.00     0.152 A 
ATOM     33  C   UNL d   1       9.515  -2.920  18.093  0.00  0.00     0.178 A 
ATOM     34  C   UNL d   1       9.910  -1.802  19.356  0.00  0.00     0.042 C 
ATOM     35  C   UNL d   1       9.638  -3.247  17.156  0.00  0.00     0.183 A 
ATOM     36  C   UNL d   1      10.278  -2.782  16.544  0.00  0.00     0.204 A 
BRANCH  33  37
ATOM     37  O   UNL d   1       8.875  -3.385  18.705  0.00  0.00    -0.390 OA
ATOM     38  H   UNL d   1       9.089  -3.720  19.181  0.00  0.00     0.210 HD
ENDBRANCH  33  37
BRANCH  35  39
ATOM     39  O   UNL d   1       9.120  -4.038  16.830  0.00  0.00    -0.390 OA
ATOM     40  H   UNL d   1       9.202  -4.245  16.252  0.00  0.00     0.210 HD
ENDBRANCH  35  39
BRANCH  36  41
ATOM     41  O   UNL d   1      10.400  -3.109  15.607  0.00  0.00    -0.388 OA
ATOM     42  H   UNL d   1      10.811  -2.832  15.233  0.00  0.00     0.210 HD
ENDBRANCH  36  41
ENDBRANCH  29  30
ENDBRANCH   2  29
BRANCH   6  43
ATOM     43  C   UNL d   1      13.900   1.276  17.696  0.00  0.00     0.198 C 
BRANCH  43  44
ATOM     44  O   UNL d   1      14.337   1.926  17.073  0.00  0.00    -0.398 OA
ATOM     45  H   UNL d   1      14.123   1.992  16.495  0.00  0.00     0.209 HD
ENDBRANCH  43  44
ENDBRANCH   6  43
BRANCH   3  46
ATOM     46  O   UNL d   1      13.136  -2.060  17.164  0.00  0.00    -0.390 OA
ATOM     47  H   UNL d   1      13.728  -2.241  17.127  0.00  0.00     0.210 HD
ENDBRANCH   3  46
BRANCH   4  48
ATOM     48  O   UNL d   1      14.369  -0.659  17.883  0.00  0.00    -0.390 OA
ATOM     49  H   UNL d   1      14.721  -0.230  18.158  0.00  0.00     0.210 HD
ENDBRANCH   4  48
TORSDOF 14
ENDMDL
MODEL 2
REMARK VINA RESULT:    -8.310      1.826      2.840
REMARK INTER + INTRA:          -2.727
REMARK INTER:                 -12.758
REMARK INTRA:                  10.031
REMARK UNBOUND:                10.442
REMARK  14 active torsions:
REMARK  status: ('A' for Active; 'I' for Inactive)
REMARK    1  A    between atoms: C_15  and  O_1 
REMARK    2  A    between atoms: C_18  and  O_1 
REMARK    3  A    between atoms: C_16  and  O_4 
REMARK    4  A    between atoms: C_20  and  O_5 
REMARK    5  A    between atoms: O_5  and  C_27 
REMARK    6  A    between atoms: C_17  and  O_6 
REMARK    7  A    between atoms: C_19  and  O_7 
REMARK    8  A    between atoms: C_22  and  O_8 
REMARK    9  A    between atoms: C_23  and  O_9 
REMARK   10  A    between atoms: O_10  and  C_25 
REMARK   11  A    between atoms: O_12  and  C_31 
REMARK   12  A    between atoms: O_14  and  C_41 
REMARK   13  A    between atoms: C_21  and  C_25 
REMARK   14  A    between atoms: C_34  and  C_36 
ROOT
ATOM      1  O   UNL d   1      11.193   1.930  16.234  0.00  0.00    -0.348 OA
ATOM      2  C   UNL d   1      11.362   0.210  16.338  0.00  0.00     0.211 A 
ATOM      3  C   UNL d   1      10.590   0.173  16.973  0.00  0.00     0.183 A 
ATOM      4  C   UNL d   1      10.119   1.014  17.237  0.00  0.00     0.180 A 
ATOM      5  C   UNL d   1      11.664   1.089  15.969  0.00  0.00     0.298 A 
ATOM      6  C   UNL d   1      10.421   1.893  16.868  0.00  0.00     0.179 A 
ENDROOT
BRANCH   5   7
ATOM      7  O   UNL d   1      12.436   1.126  15.335  0.00  0.00    -0.318 OA
BRANCH   7   8
ATOM      8  C   UNL d   1      12.481   1.846  14.643  0.00  0.00     0.077 A 
ATOM      9  C   UNL d   1      12.129   1.670  13.678  0.00  0.00     0.075 A 
ATOM     10  C   UNL d   1      12.180   2.427  12.966  0.00  0.00     0.095 A 
ATOM     11  O   UNL d   1      11.840   2.250  12.042  0.00  0.00    -0.309 OA
ATOM     12  C   UNL d   1      12.562   3.323  13.194  0.00  0.00     0.081 A 
ATOM     13  C   UNL d   1      11.883   2.968  11.347  0.00  0.00     0.090 A 
ATOM     14  C   UNL d   1      12.265   3.863  11.576  0.00  0.00     0.094 A 
ATOM     15  C   UNL d   1      12.605   4.040  12.499  0.00  0.00     0.190 A 
ATOM     16  O   UNL d   1      12.988   4.935  12.728  0.00  0.00    -0.287 OA
ATOM     17  C   UNL d   1      12.920   3.522  14.152  0.00  0.00     0.085 A 
ATOM     18  C   UNL d   1      12.879   2.779  14.881  0.00  0.00     0.074 A 
BRANCH  13  19
ATOM     19  C   UNL d   1      11.543   2.791  10.423  0.00  0.00    -0.002 A 
ATOM     20  C   UNL d   1      10.642   3.127  10.148  0.00  0.00     0.017 A 
ATOM     21  C   UNL d   1      10.303   2.950   9.225  0.00  0.00     0.037 A 
ATOM     22  C   UNL d   1      10.864   2.437   8.575  0.00  0.00     0.065 A 
ATOM     23  C   UNL d   1      11.765   2.101   8.850  0.00  0.00     0.037 A 
ATOM     24  C   UNL d   1      12.105   2.278   9.774  0.00  0.00     0.017 A 
BRANCH  22  25
ATOM     25  O   UNL d   1      10.524   2.260   7.652  0.00  0.00    -0.361 OA
ATOM     26  H   UNL d   1      10.531   2.711   7.227  0.00  0.00     0.217 HD
ENDBRANCH  22  25
ENDBRANCH  13  19
BRANCH  17  27
ATOM     27  O   UNL d   1      13.301   4.421  14.369  0.00  0.00    -0.360 OA
ATOM     28  H   UNL d   1      13.913   4.488  14.445  0.00  0.00     0.217 HD
ENDBRANCH  17  27
ENDBRANCH   7   8
ENDBRANCH   5   7
BRANCH   2  29
ATOM     29  O   UNL d   1      11.832  -0.632  16.074  0.00  0.00    -0.346 OA
BRANCH  29  30
ATOM     30  C   UNL d   1      12.489  -1.055  16.698  0.00  0.00     0.292 A 
ATOM     31  O   UNL d   1      12.984  -0.492  17.360  0.00  0.00    -0.351 OA
ATOM     32  C   UNL d   1      13.641  -0.915  17.984  0.00  0.00     0.152 A 
ATOM     33  C   UNL d   1      13.803  -1.901  17.946  0.00  0.00     0.178 A 
ATOM     34  C   UNL d   1      14.136  -0.352  18.646  0.00  0.00     0.042 C 
ATOM     35  C   UNL d   1      13.309  -2.464  17.284  0.00  0.00     0.183 A 
ATOM     36  C   UNL d   1      12.652  -2.041  16.660  0.00  0.00     0.204 A 
BRANCH  33  37
ATOM     37  O   UNL d   1      14.460  -2.324  18.570  0.00  0.00    -0.390 OA
ATOM     38  H   UNL d   1      14.565  -2.935  18.542  0.00  0.00     0.210 HD
ENDBRANCH  33  37
BRANCH  35  39
ATOM     39  O   UNL d   1      13.471  -3.450  17.246  0.00  0.00    -0.390 OA
ATOM     40  H   UNL d   1      13.785  -3.694  16.771  0.00  0.00     0.210 HD
ENDBRANCH  35  39
BRANCH  36  41
ATOM     41  O   UNL d   1      12.157  -2.604  15.998  0.00  0.00    -0.388 OA
ATOM     42  H   UNL d   1      12.034  -2.382  15.432  0.00  0.00     0.210 HD
ENDBRANCH  36  41
ENDBRANCH  29  30
ENDBRANCH   2  29
BRANCH   6  43
ATOM     43  C   UNL d   1       9.951   2.735  17.133  0.00  0.00     0.198 C 
BRANCH  43  44
ATOM     44  O   UNL d   1       9.532   3.315  16.434  0.00  0.00    -0.398 OA
ATOM     45  H   UNL d   1       9.888   3.593  16.008  0.00  0.00     0.209 HD
ENDBRANCH  43  44
ENDBRANCH   6  43
BRANCH   3  46
ATOM     46  O   UNL d   1      10.288  -0.706  17.342  0.00  0.00    -0.390 OA
ATOM     47  H   UNL d   1      10.147  -0.758  17.943  0.00  0.00     0.210 HD
ENDBRANCH   3  46
BRANCH   4  48
ATOM     48  O   UNL d   1       9.347   0.977  17.871  0.00  0.00    -0.390 OA
ATOM     49  H   UNL d   1       9.132   0.429  18.067  0.00  0.00     0.210 HD
ENDBRANCH   4  48
TORSDOF 14
ENDMDL
MODEL 3
REMARK VINA RESULT:    -8.247     15.897     20.397
REMARK INTER + INTRA:          -2.627
REMARK INTER:                 -12.628
REMARK INTRA:                  10.001
REMARK UNBOUND:                10.442
REMARK  14 active torsions:
REMARK  status: ('A' for Active; 'I' for Inactive)
REMARK    1  A    between atoms: C_15  and  O_1 
REMARK    2  A    between atoms: C_18  and  O_1 
REMARK    3  A    between atoms: C_16  and  O_4 
REMARK    4  A    between atoms: C_20  and  O_5 
REMARK    5  A    between atoms: O_5  and  C_27 
REMARK    6  A    between atoms: C_17  and  O_6 
REMARK    7  A    between atoms: C_19  and  O_7 
REMARK    8  A    between atoms: C_22  and  O_8 
REMARK    9  A    between atoms: C_23  and  O_9 
REMARK   10  A    between atoms: O_10  and  C_25 
REMARK   11  A    between atoms: O_12  and  C_31 
REMARK   12  A    between atoms: O_14  and  C_41 
REMARK   13  A    between atoms: C_21  and  C_25 
REMARK   14  A    between atoms: C_34  and  C_36 
ROOT
ATOM      1  O   UNL d   1       7.885  10.975  -1.631  0.00  0.00    -0.348 OA
ATOM      2  C   UNL d   1       7.351  10.331  -3.147  0.00  0.00     0.211 A 
ATOM      3  C   UNL d   1       6.622  11.014  -3.181  0.00  0.00     0.183 A 
ATOM      4  C   UNL d   1       6.524  11.677  -2.439  0.00  0.00     0.180 A 
ATOM      5  C   UNL d   1       7.983  10.311  -2.372  0.00  0.00     0.298 A 
ATOM      6  C   UNL d   1       7.155  11.658  -1.664  0.00  0.00     0.179 A 
ENDROOT
BRANCH   5   7
ATOM      7  O   UNL d   1       8.713   9.628  -2.339  0.00  0.00    -0.318 OA
BRANCH   7   8
ATOM      8  C   UNL d   1       8.997   9.243  -1.461  0.00  0.00     0.077 A 
ATOM      9  C   UNL d   1       9.711   9.731  -0.880  0.00  0.00     0.075 A 
ATOM     10  C   UNL d   1      10.000   9.321   0.032  0.00  0.00     0.095 A 
ATOM     11  O   UNL d   1      10.685   9.796   0.584  0.00  0.00    -0.309 OA
ATOM     12  C   UNL d   1       9.601   8.464   0.359  0.00  0.00     0.081 A 
ATOM     13  C   UNL d   1      10.972   9.413   1.463  0.00  0.00     0.090 A 
ATOM     14  C   UNL d   1      10.574   8.556   1.789  0.00  0.00     0.094 A 
ATOM     15  C   UNL d   1       9.888   8.081   1.237  0.00  0.00     0.190 A 
ATOM     16  O   UNL d   1       9.490   7.224   1.563  0.00  0.00    -0.287 OA
ATOM     17  C   UNL d   1       8.886   7.958  -0.206  0.00  0.00     0.085 A 
ATOM     18  C   UNL d   1       8.583   8.350  -1.121  0.00  0.00     0.074 A 
BRANCH  13  19
ATOM     19  C   UNL d   1      11.658   9.888   2.015  0.00  0.00    -0.002 A 
ATOM     20  C   UNL d   1      12.631   9.718   1.859  0.00  0.00     0.017 A 
ATOM     21  C   UNL d   1      13.315  10.193   2.412  0.00  0.00     0.037 A 
ATOM     22  C   UNL d   1      13.028  10.837   3.120  0.00  0.00     0.065 A 
ATOM     23  C   UNL d   1      12.055  11.007   3.276  0.00  0.00     0.037 A 
ATOM     24  C   UNL d   1      11.369  10.533   2.723  0.00  0.00     0.017 A 
BRANCH  22  25
ATOM     25  O   UNL d   1      13.713  11.312   3.672  0.00  0.00    -0.361 OA
ATOM     26  H   UNL d   1      14.123  11.690   3.400  0.00  0.00     0.217 HD
ENDBRANCH  22  25
ENDBRANCH  13  19
BRANCH  17  27
ATOM     27  O   UNL d   1       8.495   7.101   0.131  0.00  0.00    -0.360 OA
ATOM     28  H   UNL d   1       7.913   7.090   0.345  0.00  0.00     0.217 HD
ENDBRANCH  17  27
ENDBRANCH   7   8
ENDBRANCH   5   7
BRANCH   2  29
ATOM     29  O   UNL d   1       7.449   9.667  -3.889  0.00  0.00    -0.346 OA
BRANCH  29  30
ATOM     30  C   UNL d   1       8.173   9.782  -4.570  0.00  0.00     0.292 A 
ATOM     31  O   UNL d   1       8.537  10.692  -4.764  0.00  0.00    -0.351 OA
ATOM     32  C   UNL d   1       9.261  10.807  -5.445  0.00  0.00     0.152 A 
ATOM     33  C   UNL d   1       9.620  10.010  -5.931  0.00  0.00     0.178 A 
ATOM     34  C   UNL d   1       9.625  11.717  -5.639  0.00  0.00     0.042 C 
ATOM     35  C   UNL d   1       9.256   9.099  -5.736  0.00  0.00     0.183 A 
ATOM     36  C   UNL d   1       8.532   8.985  -5.056  0.00  0.00     0.204 A 
BRANCH  33  37
ATOM     37  O   UNL d   1      10.344  10.124  -6.612  0.00  0.00    -0.390 OA
ATOM     38  H   UNL d   1      10.620  10.675  -6.681  0.00  0.00     0.210 HD
ENDBRANCH  33  37
BRANCH  35  39
ATOM     39  O   UNL d   1       9.616   8.303  -6.222  0.00  0.00    -0.390 OA
ATOM     40  H   UNL d   1       9.251   7.812  -6.327  0.00  0.00     0.210 HD
ENDBRANCH  35  39
BRANCH  36  41
ATOM     41  O   UNL d   1       8.168   8.074  -4.861  0.00  0.00    -0.388 OA
ATOM     42  H   UNL d   1       8.068   7.675  -5.325  0.00  0.00     0.210 HD
ENDBRANCH  36  41
ENDBRANCH  29  30
ENDBRANCH   2  29
BRANCH   6  43
ATOM     43  C   UNL d   1       7.057  12.321  -0.922  0.00  0.00     0.198 C 
BRANCH  43  44
ATOM     44  O   UNL d   1       7.098  12.017   0.030  0.00  0.00    -0.398 OA
ATOM     45  H   UNL d   1       6.620  11.708   0.277  0.00  0.00     0.209 HD
ENDBRANCH  43  44
ENDBRANCH   6  43
BRANCH   3  46
ATOM     46  O   UNL d   1       5.990  11.033  -3.955  0.00  0.00    -0.390 OA
ATOM     47  H   UNL d   1       5.421  10.792  -3.898  0.00  0.00     0.210 HD
ENDBRANCH   3  46
BRANCH   4  48
ATOM     48  O   UNL d   1       5.794  12.360  -2.472  0.00  0.00    -0.390 OA
ATOM     49  H   UNL d   1       5.518  12.545  -1.948  0.00  0.00     0.210 HD
ENDBRANCH   4  48
TORSDOF 14
ENDMDL
MODEL 4
REMARK VINA RESULT:    -8.186     11.651     14.520
REMARK INTER + INTRA:          -2.530
REMARK INTER:                 -12.672
REMARK INTRA:                  10.142
REMARK UNBOUND:                10.442
REMARK  14 active torsions:
REMARK  status: ('A' for Active; 'I' for Inactive)
REMARK    1  A    between atoms: C_15  and  O_1 
REMARK    2  A    between atoms: C_18  and  O_1 
REMARK    3  A    between atoms: C_16  and  O_4 
REMARK    4  A    between atoms: C_20  and  O_5 
REMARK    5  A    between atoms: O_5  and  C_27 
REMARK    6  A    between atoms: C_17  and  O_6 
REMARK    7  A    between atoms: C_19  and  O_7 
REMARK    8  A    between atoms: C_22  and  O_8 
REMARK    9  A    between atoms: C_23  and  O_9 
REMARK   10  A    between atoms: O_10  and  C_25 
REMARK   11  A    between atoms: O_12  and  C_31 
REMARK   12  A    between atoms: O_14  and  C_41 
REMARK   13  A    between atoms: C_21  and  C_25 
REMARK   14  A    between atoms: C_34  and  C_36 
ROOT
ATOM      1  O   UNL d   1      13.177  -9.656   8.579  0.00  0.00    -0.348 OA
ATOM      2  C   UNL d   1      14.091  -9.826  10.040  0.00  0.00     0.211 A 
ATOM      3  C   UNL d   1      14.084  -8.833  10.160  0.00  0.00     0.183 A 
ATOM      4  C   UNL d   1      13.623  -8.252   9.489  0.00  0.00     0.180 A 
ATOM      5  C   UNL d   1      13.638 -10.237   9.249  0.00  0.00     0.298 A 
ATOM      6  C   UNL d   1      13.170  -8.663   8.699  0.00  0.00     0.179 A 
ENDROOT
BRANCH   5   7
ATOM      7  O   UNL d   1      13.645 -11.230   9.130  0.00  0.00    -0.318 OA
BRANCH   7   8
ATOM      8  C   UNL d   1      12.847 -11.693   8.743  0.00  0.00     0.077 A 
ATOM      9  C   UNL d   1      12.033 -11.929   9.349  0.00  0.00     0.075 A 
ATOM     10  C   UNL d   1      11.208 -12.411   8.937  0.00  0.00     0.095 A 
ATOM     11  O   UNL d   1      10.430 -12.635   9.525  0.00  0.00    -0.309 OA
ATOM     12  C   UNL d   1      11.185 -12.651   7.966  0.00  0.00     0.081 A 
ATOM     13  C   UNL d   1       9.630 -13.098   9.142  0.00  0.00     0.090 A 
ATOM     14  C   UNL d   1       9.608 -13.337   8.171  0.00  0.00     0.094 A 
ATOM     15  C   UNL d   1      10.385 -13.113   7.583  0.00  0.00     0.190 A 
ATOM     16  O   UNL d   1      10.363 -13.352   6.612  0.00  0.00    -0.287 OA
ATOM     17  C   UNL d   1      11.987 -12.424   7.341  0.00  0.00     0.085 A 
ATOM     18  C   UNL d   1      12.823 -11.942   7.732  0.00  0.00     0.074 A 
BRANCH  13  19
ATOM     19  C   UNL d   1       8.853 -13.322   9.730  0.00  0.00    -0.002 A 
ATOM     20  C   UNL d   1       8.978 -13.394  10.719  0.00  0.00     0.017 A 
ATOM     21  C   UNL d   1       8.201 -13.618  11.306  0.00  0.00     0.037 A 
ATOM     22  C   UNL d   1       7.298 -13.770  10.905  0.00  0.00     0.065 A 
ATOM     23  C   UNL d   1       7.173 -13.698   9.915  0.00  0.00     0.037 A 
ATOM     24  C   UNL d   1       7.950 -13.474   9.327  0.00  0.00     0.017 A 
BRANCH  22  25
ATOM     25  O   UNL d   1       6.520 -13.994  11.493  0.00  0.00    -0.361 OA
ATOM     26  H   UNL d   1       6.322 -13.584  11.914  0.00  0.00     0.217 HD
ENDBRANCH  22  25
ENDBRANCH  13  19
BRANCH  17  27
ATOM     27  O   UNL d   1      11.953 -12.667   6.371  0.00  0.00    -0.360 OA
ATOM     28  H   UNL d   1      12.457 -12.596   6.016  0.00  0.00     0.217 HD
ENDBRANCH  17  27
ENDBRANCH   7   8
ENDBRANCH   5   7
BRANCH   2  29
ATOM     29  O   UNL d   1      14.551 -10.407  10.711  0.00  0.00    -0.346 OA
BRANCH  29  30
ATOM     30  C   UNL d   1      15.544 -10.523  10.675  0.00  0.00     0.292 A 
ATOM     31  O   UNL d   1      16.032 -10.383   9.813  0.00  0.00    -0.351 OA
ATOM     32  C   UNL d   1      17.025 -10.499   9.777  0.00  0.00     0.152 A 
ATOM     33  C   UNL d   1      17.529 -10.756  10.602  0.00  0.00     0.178 A 
ATOM     34  C   UNL d   1      17.513 -10.359   8.916  0.00  0.00     0.042 C 
ATOM     35  C   UNL d   1      17.040 -10.896  11.463  0.00  0.00     0.183 A 
ATOM     36  C   UNL d   1      16.048 -10.780  11.499  0.00  0.00     0.204 A 
BRANCH  33  37
ATOM     37  O   UNL d   1      18.521 -10.872  10.565  0.00  0.00    -0.390 OA
ATOM     38  H   UNL d   1      18.890 -10.491  10.886  0.00  0.00     0.210 HD
ENDBRANCH  33  37
BRANCH  35  39
ATOM     39  O   UNL d   1      17.544 -11.152  12.287  0.00  0.00    -0.390 OA
ATOM     40  H   UNL d   1      17.289 -11.539  12.699  0.00  0.00     0.210 HD
ENDBRANCH  35  39
BRANCH  36  41
ATOM     41  O   UNL d   1      15.559 -10.920  12.361  0.00  0.00    -0.388 OA
ATOM     42  H   UNL d   1      14.978 -11.137  12.356  0.00  0.00     0.210 HD
ENDBRANCH  36  41
ENDBRANCH  29  30
ENDBRANCH   2  29
BRANCH   6  43
ATOM     43  C   UNL d   1      12.710  -8.082   8.028  0.00  0.00     0.198 C 
BRANCH  43  44
ATOM     44  O   UNL d   1      12.423  -8.463   7.149  0.00  0.00    -0.398 OA
ATOM     45  H   UNL d   1      12.498  -9.068   7.034  0.00  0.00     0.209 HD
ENDBRANCH  43  44
ENDBRANCH   6  43
BRANCH   3  46
ATOM     46  O   UNL d   1      14.537  -8.422  10.951  0.00  0.00    -0.390 OA
ATOM     47  H   UNL d   1      15.031  -8.698  11.204  0.00  0.00     0.210 HD
ENDBRANCH   3  46
BRANCH   4  48
ATOM     48  O   UNL d   1      13.616  -7.259   9.609  0.00  0.00    -0.390 OA
ATOM     49  H   UNL d   1      14.097  -6.976   9.879  0.00  0.00     0.210 HD
ENDBRANCH   4  48
TORSDOF 14
ENDMDL
MODEL 5
REMARK VINA RESULT:    -8.151     12.781     14.721
REMARK INTER + INTRA:          -2.474
REMARK INTER:                 -12.251
REMARK INTRA:                   9.777
REMARK UNBOUND:                10.442
REMARK  14 active torsions:
REMARK  status: ('A' for Active; 'I' for Inactive)
REMARK    1  A    between atoms: C_15  and  O_1 
REMARK    2  A    between atoms: C_18  and  O_1 
REMARK    3  A    between atoms: C_16  and  O_4 
REMARK    4  A    between atoms: C_20  and  O_5 
REMARK    5  A    between atoms: O_5  and  C_27 
REMARK    6  A    between atoms: C_17  and  O_6 
REMARK    7  A    between atoms: C_19  and  O_7 
REMARK    8  A    between atoms: C_22  and  O_8 
REMARK    9  A    between atoms: C_23  and  O_9 
REMARK   10  A    between atoms: O_10  and  C_25 
REMARK   11  A    between atoms: O_12  and  C_31 
REMARK   12  A    between atoms: O_14  and  C_41 
REMARK   13  A    between atoms: C_21  and  C_25 
REMARK   14  A    between atoms: C_34  and  C_36 
ROOT
ATOM      1  O   UNL d   1      18.070 -10.260   9.739  0.00  0.00    -0.348 OA
ATOM      2  C   UNL d   1      18.887 -11.425   8.751  0.00  0.00     0.211 A 
ATOM      3  C   UNL d   1      19.769 -11.052   9.041  0.00  0.00     0.183 A 
ATOM      4  C   UNL d   1      19.801 -10.283   9.680  0.00  0.00     0.180 A 
ATOM      5  C   UNL d   1      18.038 -11.029   9.101  0.00  0.00     0.298 A 
ATOM      6  C   UNL d   1      18.951  -9.887  10.029  0.00  0.00     0.179 A 
ENDROOT
BRANCH   5   7
ATOM      7  O   UNL d   1      17.157 -11.402   8.811  0.00  0.00    -0.318 OA
BRANCH   7   8
ATOM      8  C   UNL d   1      16.351 -10.811   8.773  0.00  0.00     0.077 A 
ATOM      9  C   UNL d   1      15.611 -10.884   9.502  0.00  0.00     0.075 A 
ATOM     10  C   UNL d   1      14.777 -10.263   9.453  0.00  0.00     0.095 A 
ATOM     11  O   UNL d   1      14.070 -10.339  10.157  0.00  0.00    -0.309 OA
ATOM     12  C   UNL d   1      14.676  -9.596   8.714  0.00  0.00     0.081 A 
ATOM     13  C   UNL d   1      13.264  -9.749  10.122  0.00  0.00     0.090 A 
ATOM     14  C   UNL d   1      13.164  -9.083   9.383  0.00  0.00     0.094 A 
ATOM     15  C   UNL d   1      13.869  -9.006   8.679  0.00  0.00     0.190 A 
ATOM     16  O   UNL d   1      13.769  -8.340   7.941  0.00  0.00    -0.287 OA
ATOM     17  C   UNL d   1      15.404  -9.505   7.974  0.00  0.00     0.085 A 
ATOM     18  C   UNL d   1      16.246 -10.116   8.003  0.00  0.00     0.074 A 
BRANCH  13  19
ATOM     19  C   UNL d   1      12.557  -9.825  10.826  0.00  0.00    -0.002 A 
ATOM     20  C   UNL d   1      11.812 -10.483  10.717  0.00  0.00     0.017 A 
ATOM     21  C   UNL d   1      11.106 -10.559  11.421  0.00  0.00     0.037 A 
ATOM     22  C   UNL d   1      11.145  -9.977  12.234  0.00  0.00     0.065 A 
ATOM     23  C   UNL d   1      11.891  -9.320  12.342  0.00  0.00     0.037 A 
ATOM     24  C   UNL d   1      12.597  -9.244  11.638  0.00  0.00     0.017 A 
BRANCH  22  25
ATOM     25  O   UNL d   1      10.438 -10.054  12.937  0.00  0.00    -0.361 OA
ATOM     26  H   UNL d   1       9.840 -10.021  12.780  0.00  0.00     0.217 HD
ENDBRANCH  22  25
ENDBRANCH  13  19
BRANCH  17  27
ATOM     27  O   UNL d   1      15.292  -8.835   7.240  0.00  0.00    -0.360 OA
ATOM     28  H   UNL d   1      15.442  -8.986   6.657  0.00  0.00     0.217 HD
ENDBRANCH  17  27
ENDBRANCH   7   8
ENDBRANCH   5   7
BRANCH   2  29
ATOM     29  O   UNL d   1      18.855 -12.194   8.113  0.00  0.00    -0.346 OA
BRANCH  29  30
ATOM     30  C   UNL d   1      18.752 -13.126   8.458  0.00  0.00     0.292 A 
ATOM     31  O   UNL d   1      18.973 -13.334   9.411  0.00  0.00    -0.351 OA
ATOM     32  C   UNL d   1      18.870 -14.267   9.756  0.00  0.00     0.152 A 
ATOM     33  C   UNL d   1      18.546 -14.992   9.148  0.00  0.00     0.178 A 
ATOM     34  C   UNL d   1      19.091 -14.475  10.709  0.00  0.00     0.042 C 
ATOM     35  C   UNL d   1      18.325 -14.784   8.195  0.00  0.00     0.183 A 
ATOM     36  C   UNL d   1      18.428 -13.851   7.850  0.00  0.00     0.204 A 
BRANCH  33  37
ATOM     37  O   UNL d   1      18.443 -15.925   9.494  0.00  0.00    -0.390 OA
ATOM     38  H   UNL d   1      18.443 -16.403   9.099  0.00  0.00     0.210 HD
ENDBRANCH  33  37
BRANCH  35  39
ATOM     39  O   UNL d   1      18.001 -15.509   7.588  0.00  0.00    -0.390 OA
ATOM     40  H   UNL d   1      17.554 -15.391   7.176  0.00  0.00     0.210 HD
ENDBRANCH  35  39
BRANCH  36  41
ATOM     41  O   UNL d   1      18.208 -13.644   6.897  0.00  0.00    -0.388 OA
ATOM     42  H   UNL d   1      17.930 -14.070   6.543  0.00  0.00     0.210 HD
ENDBRANCH  36  41
ENDBRANCH  29  30
ENDBRANCH   2  29
BRANCH   6  43
ATOM     43  C   UNL d   1      18.983  -9.118  10.667  0.00  0.00     0.198 C 
BRANCH  43  44
ATOM     44  O   UNL d   1      18.150  -8.819  11.132  0.00  0.00    -0.398 OA
ATOM     45  H   UNL d   1      18.101  -8.236  11.336  0.00  0.00     0.209 HD
ENDBRANCH  43  44
ENDBRANCH   6  43
BRANCH   3  46
ATOM     46  O   UNL d   1      20.618 -11.447   8.692  0.00  0.00    -0.390 OA
ATOM     47  H   UNL d   1      21.104 -11.520   9.070  0.00  0.00     0.210 HD
ENDBRANCH   3  46
BRANCH   4  48
ATOM     48  O   UNL d   1      20.682  -9.910   9.969  0.00  0.00    -0.390 OA
ATOM     49  H   UNL d   1      20.939  -9.441   9.654  0.00  0.00     0.210 HD
ENDBRANCH   4  48
TORSDOF 14
ENDMDL
