MODEL 1
REMARK VINA RESULT:    -3.078      0.000      0.000
REMARK INTER + INTRA:          -3.078
REMARK INTER:                  -3.078
REMARK INTRA:                   0.000
REMARK UNBOUND:                 0.000
REMARK  0 active torsions:
REMARK  status: ('A' for Active; 'I' for Inactive)
ROOT
ATOM      1  O   UNL d   1      -3.252  11.989  -1.712  0.00  0.00    -0.648 OA
ATOM      2  O   UNL d   1      -2.013  11.120  -0.869  0.00  0.00    -0.648 OA
ATOM      3  C   UNL d   1      -1.629  11.988  -2.317  0.00  0.00     0.129 C 
ATOM      4  C   UNL d   1      -2.298  11.699  -1.633  0.00  0.00     0.168 C 
ENDROOT
TORSDOF 0
ENDMDL
MODEL 2
REMARK VINA RESULT:    -2.678      9.266      9.413
REMARK INTER + INTRA:          -2.678
REMARK INTER:                  -2.678
REMARK INTRA:                   0.000
REMARK UNBOUND:                 0.000
REMARK  0 active torsions:
REMARK  status: ('A' for Active; 'I' for Inactive)
ROOT
ATOM      1  O   UNL d   1      -3.598  10.343   7.926  0.00  0.00    -0.648 OA
ATOM      2  O   UNL d   1      -3.122   8.886   7.119  0.00  0.00    -0.648 OA
ATOM      3  C   UNL d   1      -4.735   9.489   6.937  0.00  0.00     0.129 C 
ATOM      4  C   UNL d   1      -3.818   9.573   7.327  0.00  0.00     0.168 C 
ENDROOT
TORSDOF 0
ENDMDL
MODEL 3
REMARK VINA RESULT:    -2.619     21.532     21.771
REMARK INTER + INTRA:          -2.619
REMARK INTER:                  -2.619
REMARK INTRA:                   0.000
REMARK UNBOUND:                 0.000
REMARK  0 active torsions:
REMARK  status: ('A' for Active; 'I' for Inactive)
ROOT
ATOM      1  O   UNL d   1     -14.114  -6.214   2.777  0.00  0.00    -0.648 OA
ATOM      2  O   UNL d   1     -12.493  -6.051   2.189  0.00  0.00    -0.648 OA
ATOM      3  C   UNL d   1     -13.245  -7.610   2.235  0.00  0.00     0.129 C 
ATOM      4  C   UNL d   1     -13.284  -6.625   2.400  0.00  0.00     0.168 C 
ENDROOT
TORSDOF 0
ENDMDL
MODEL 4
REMARK VINA RESULT:    -2.586     15.112     15.149
REMARK INTER + INTRA:          -2.586
REMARK INTER:                  -2.586
REMARK INTRA:                   0.000
REMARK UNBOUND:                 0.000
REMARK  0 active torsions:
REMARK  status: ('A' for Active; 'I' for Inactive)
ROOT
ATOM      1  O   UNL d   1      -4.326   0.377 -11.949  0.00  0.00    -0.648 OA
ATOM      2  O   UNL d   1      -5.394  -0.078 -10.664  0.00  0.00    -0.648 OA
ATOM      3  C   UNL d   1      -5.725   1.339 -11.604  0.00  0.00     0.129 C 
ATOM      4  C   UNL d   1      -5.148   0.546 -11.406  0.00  0.00     0.168 C 
ENDROOT
TORSDOF 0
ENDMDL
MODEL 5
REMARK VINA RESULT:    -2.583     17.741     17.896
REMARK INTER + INTRA:          -2.583
REMARK INTER:                  -2.583
REMARK INTRA:                   0.000
REMARK UNBOUND:                 0.000
REMARK  0 active torsions:
REMARK  status: ('A' for Active; 'I' for Inactive)
ROOT
ATOM      1  O   UNL d   1      -3.242  -5.790  -6.960  0.00  0.00    -0.648 OA
ATOM      2  O   UNL d   1      -1.993  -5.548  -8.135  0.00  0.00    -0.648 OA
ATOM      3  C   UNL d   1      -2.335  -4.314  -6.969  0.00  0.00     0.129 C 
ATOM      4  C   UNL d   1      -2.523  -5.217  -7.354  0.00  0.00     0.168 C 
ENDROOT
TORSDOF 0
ENDMDL
