MODEL 1
REMARK VINA RESULT:    -8.608      0.000      0.000
REMARK INTER + INTRA:          -2.331
REMARK INTER:                 -17.276
REMARK INTRA:                  14.945
REMARK UNBOUND:                14.328
REMARK  19 active torsions:
REMARK  status: ('A' for Active; 'I' for Inactive)
REMARK    1  A    between atoms: C_13  and  O_1 
REMARK    2  A    between atoms: O_1  and  C_17 
REMARK    3  A    between atoms: C_14  and  O_2 
REMARK    4  A    between atoms: O_2  and  C_18 
REMARK    5  A    between atoms: O_3  and  C_15 
REMARK    6  A    between atoms: O_4  and  C_16 
REMARK    7  A    between atoms: O_9  and  C_29 
REMARK    8  A    between atoms: O_10  and  C_30 
REMARK    9  A    between atoms: O_11  and  C_33 
REMARK   10  A    between atoms: O_12  and  C_34 
REMARK   11  A    between atoms: C_13  and  C_14 
REMARK   12  A    between atoms: C_13  and  C_15 
REMARK   13  A    between atoms: C_14  and  C_16 
REMARK   14  A    between atoms: C_17  and  C_21 
REMARK   15  A    between atoms: C_18  and  C_22 
REMARK   16  A    between atoms: C_19  and  C_23 
REMARK   17  A    between atoms: C_20  and  C_24 
REMARK   18  A    between atoms: C_21  and  C_23 
REMARK   19  A    between atoms: C_22  and  C_24 
ROOT
ATOM      1  C   UNL d   1      23.636 -16.418  23.455  0.00  0.00     0.269 C 
ENDROOT
BRANCH   1   2
ATOM      2  O   UNL d   1      23.158 -16.993  24.119  0.00  0.00    -0.299 OA
BRANCH   2   3
ATOM      3  C   UNL d   1      23.282 -16.833  25.099  0.00  0.00     0.283 C 
ATOM      4  O   UNL d   1      22.933 -15.995  25.517  0.00  0.00    -0.260 OA
BRANCH   3   5
ATOM      5  C   UNL d   1      23.755 -17.513  25.660  0.00  0.00     0.083 C 
BRANCH   5   6
ATOM      6  C   UNL d   1      23.924 -17.331  26.628  0.00  0.00     0.017 C 
BRANCH   6   7
ATOM      7  C   UNL d   1      24.720 -17.732  27.081  0.00  0.00    -0.033 A 
ATOM      8  C   UNL d   1      24.807 -18.726  27.152  0.00  0.00     0.050 A 
ATOM      9  C   UNL d   1      25.603 -19.127  27.604  0.00  0.00     0.099 A 
ATOM     10  C   UNL d   1      26.313 -18.535  27.986  0.00  0.00     0.098 A 
ATOM     11  C   UNL d   1      26.226 -17.542  27.915  0.00  0.00     0.040 A 
ATOM     12  C   UNL d   1      25.430 -17.140  27.463  0.00  0.00     0.014 A 
BRANCH   9  13
ATOM     13  O   UNL d   1      25.690 -20.121  27.675  0.00  0.00    -0.358 OA
ATOM     14  H   UNL d   1      26.098 -20.423  27.319  0.00  0.00     0.217 HD
ENDBRANCH   9  13
BRANCH  10  15
ATOM     15  O   UNL d   1      27.109 -18.937  28.439  0.00  0.00    -0.358 OA
ATOM     16  H   UNL d   1      27.164 -19.553  28.481  0.00  0.00     0.217 HD
ENDBRANCH  10  15
ENDBRANCH   6   7
ENDBRANCH   5   6
ENDBRANCH   3   5
ENDBRANCH   2   3
ENDBRANCH   1   2
BRANCH   1  17
ATOM     17  C   UNL d   1      23.137 -16.031  22.679  0.00  0.00     0.269 C 
BRANCH  17  18
ATOM     18  O   UNL d   1      23.353 -16.328  21.748  0.00  0.00    -0.299 OA
BRANCH  18  19
ATOM     19  C   UNL d   1      22.673 -16.829  21.213  0.00  0.00     0.283 C 
ATOM     20  O   UNL d   1      22.125 -16.351  20.528  0.00  0.00    -0.260 OA
BRANCH  19  21
ATOM     21  C   UNL d   1      22.542 -17.809  21.363  0.00  0.00     0.083 C 
BRANCH  21  22
ATOM     22  C   UNL d   1      21.923 -18.327  20.773  0.00  0.00     0.017 C 
BRANCH  22  23
ATOM     23  C   UNL d   1      21.555 -19.204  21.081  0.00  0.00    -0.033 A 
ATOM     24  C   UNL d   1      21.550 -19.430  22.056  0.00  0.00     0.050 A 
ATOM     25  C   UNL d   1      21.181 -20.307  22.364  0.00  0.00     0.099 A 
ATOM     26  C   UNL d   1      20.818 -20.958  21.698  0.00  0.00     0.098 A 
ATOM     27  C   UNL d   1      20.823 -20.733  20.724  0.00  0.00     0.040 A 
ATOM     28  C   UNL d   1      21.192 -19.856  20.416  0.00  0.00     0.014 A 
BRANCH  25  29
ATOM     29  O   UNL d   1      21.176 -20.532  23.338  0.00  0.00    -0.358 OA
ATOM     30  H   UNL d   1      21.347 -20.107  23.756  0.00  0.00     0.217 HD
ENDBRANCH  25  29
BRANCH  26  31
ATOM     31  O   UNL d   1      20.450 -21.835  22.007  0.00  0.00    -0.358 OA
ATOM     32  H   UNL d   1      20.544 -22.023  22.590  0.00  0.00     0.217 HD
ENDBRANCH  26  31
ENDBRANCH  22  23
ENDBRANCH  21  22
ENDBRANCH  19  21
ENDBRANCH  18  19
ENDBRANCH  17  18
BRANCH  17  33
ATOM     33  C   UNL d   1      22.424 -15.348  22.832  0.00  0.00     0.173 C 
ATOM     34  O   UNL d   1      22.633 -14.375  22.735  0.00  0.00    -0.648 OA
BRANCH  33  35
ATOM     35  O   UNL d   1      21.500 -15.638  23.084  0.00  0.00    -0.774 OA
ATOM     36  H   UNL d   1      21.062 -15.689  22.649  0.00  0.00     0.167 HD
ENDBRANCH  33  35
ENDBRANCH  17  33
ENDBRANCH   1  17
BRANCH   1  37
ATOM     37  C   UNL d   1      24.611 -16.229  23.567  0.00  0.00     0.173 C 
ATOM     38  O   UNL d   1      25.282 -16.954  23.413  0.00  0.00    -0.648 OA
BRANCH  37  39
ATOM     39  O   UNL d   1      24.916 -15.314  23.833  0.00  0.00    -0.774 OA
ATOM     40  H   UNL d   1      24.997 -15.176  24.432  0.00  0.00     0.167 HD
ENDBRANCH  37  39
ENDBRANCH   1  37
TORSDOF 19
ENDMDL
MODEL 2
REMARK VINA RESULT:    -8.418     38.962     41.214
REMARK INTER + INTRA:          -1.964
REMARK INTER:                 -16.758
REMARK INTRA:                  14.794
REMARK UNBOUND:                14.328
REMARK  19 active torsions:
REMARK  status: ('A' for Active; 'I' for Inactive)
REMARK    1  A    between atoms: C_13  and  O_1 
REMARK    2  A    between atoms: O_1  and  C_17 
REMARK    3  A    between atoms: C_14  and  O_2 
REMARK    4  A    between atoms: O_2  and  C_18 
REMARK    5  A    between atoms: O_3  and  C_15 
REMARK    6  A    between atoms: O_4  and  C_16 
REMARK    7  A    between atoms: O_9  and  C_29 
REMARK    8  A    between atoms: O_10  and  C_30 
REMARK    9  A    between atoms: O_11  and  C_33 
REMARK   10  A    between atoms: O_12  and  C_34 
REMARK   11  A    between atoms: C_13  and  C_14 
REMARK   12  A    between atoms: C_13  and  C_15 
REMARK   13  A    between atoms: C_14  and  C_16 
REMARK   14  A    between atoms: C_17  and  C_21 
REMARK   15  A    between atoms: C_18  and  C_22 
REMARK   16  A    between atoms: C_19  and  C_23 
REMARK   17  A    between atoms: C_20  and  C_24 
REMARK   18  A    between atoms: C_21  and  C_23 
REMARK   19  A    between atoms: C_22  and  C_24 
ROOT
ATOM      1  C   UNL d   1     -17.542 -15.246  22.867  0.00  0.00     0.269 C 
ENDROOT
BRANCH   1   2
ATOM      2  O   UNL d   1     -17.801 -15.483  23.803  0.00  0.00    -0.299 OA
BRANCH   2   3
ATOM      3  C   UNL d   1     -17.469 -14.931  24.568  0.00  0.00     0.283 C 
ATOM      4  O   UNL d   1     -16.493 -14.911  24.785  0.00  0.00    -0.260 OA
BRANCH   3   5
ATOM      5  C   UNL d   1     -18.114 -14.398  25.117  0.00  0.00     0.083 C 
BRANCH   5   6
ATOM      6  C   UNL d   1     -17.880 -14.142  26.054  0.00  0.00     0.017 C 
BRANCH   6   7
ATOM      7  C   UNL d   1     -18.604 -13.934  26.712  0.00  0.00    -0.033 A 
ATOM      8  C   UNL d   1     -19.559 -14.118  26.478  0.00  0.00     0.050 A 
ATOM      9  C   UNL d   1     -20.284 -13.911  27.135  0.00  0.00     0.099 A 
ATOM     10  C   UNL d   1     -20.054 -13.518  28.026  0.00  0.00     0.098 A 
ATOM     11  C   UNL d   1     -19.099 -13.334  28.259  0.00  0.00     0.040 A 
ATOM     12  C   UNL d   1     -18.374 -13.541  27.602  0.00  0.00     0.014 A 
BRANCH   9  13
ATOM     13  O   UNL d   1     -21.238 -14.095  26.902  0.00  0.00    -0.358 OA
ATOM     14  H   UNL d   1     -21.671 -14.099  27.346  0.00  0.00     0.217 HD
ENDBRANCH   9  13
BRANCH  10  15
ATOM     15  O   UNL d   1     -20.778 -13.311  28.683  0.00  0.00    -0.358 OA
ATOM     16  H   UNL d   1     -20.947 -13.735  29.103  0.00  0.00     0.217 HD
ENDBRANCH  10  15
ENDBRANCH   6   7
ENDBRANCH   5   6
ENDBRANCH   3   5
ENDBRANCH   2   3
ENDBRANCH   1   2
BRANCH   1  17
ATOM     17  C   UNL d   1     -17.438 -15.965  22.180  0.00  0.00     0.269 C 
BRANCH  17  18
ATOM     18  O   UNL d   1     -16.574 -16.462  22.102  0.00  0.00    -0.299 OA
BRANCH  18  19
ATOM     19  C   UNL d   1     -16.543 -17.444  22.290  0.00  0.00     0.283 C 
ATOM     20  O   UNL d   1     -16.791 -18.098  21.575  0.00  0.00    -0.260 OA
BRANCH  19  21
ATOM     21  C   UNL d   1     -16.263 -17.772  23.193  0.00  0.00     0.083 C 
BRANCH  21  22
ATOM     22  C   UNL d   1     -16.266 -18.752  23.392  0.00  0.00     0.017 C 
BRANCH  22  23
ATOM     23  C   UNL d   1     -16.300 -19.069  24.339  0.00  0.00    -0.033 A 
ATOM     24  C   UNL d   1     -15.622 -19.724  24.672  0.00  0.00     0.050 A 
ATOM     25  C   UNL d   1     -15.655 -20.042  25.619  0.00  0.00     0.099 A 
ATOM     26  C   UNL d   1     -16.368 -19.705  26.234  0.00  0.00     0.098 A 
ATOM     27  C   UNL d   1     -17.047 -19.050  25.902  0.00  0.00     0.040 A 
ATOM     28  C   UNL d   1     -17.013 -18.732  24.954  0.00  0.00     0.014 A 
BRANCH  25  29
ATOM     29  O   UNL d   1     -14.977 -20.697  25.951  0.00  0.00    -0.358 OA
ATOM     30  H   UNL d   1     -14.372 -20.570  25.900  0.00  0.00     0.217 HD
ENDBRANCH  25  29
BRANCH  26  31
ATOM     31  O   UNL d   1     -16.402 -20.022  27.182  0.00  0.00    -0.358 OA
ATOM     32  H   UNL d   1     -15.887 -20.022  27.528  0.00  0.00     0.217 HD
ENDBRANCH  26  31
ENDBRANCH  22  23
ENDBRANCH  21  22
ENDBRANCH  19  21
ENDBRANCH  18  19
ENDBRANCH  17  18
BRANCH  17  33
ATOM     33  C   UNL d   1     -18.199 -16.188  21.570  0.00  0.00     0.173 C 
ATOM     34  O   UNL d   1     -18.120 -16.016  20.588  0.00  0.00    -0.648 OA
BRANCH  33  35
ATOM     35  O   UNL d   1     -19.039 -16.583  21.943  0.00  0.00    -0.774 OA
ATOM     36  H   UNL d   1     -19.043 -16.819  22.516  0.00  0.00     0.167 HD
ENDBRANCH  33  35
ENDBRANCH  17  33
ENDBRANCH   1  17
BRANCH   1  37
ATOM     37  C   UNL d   1     -17.386 -14.290  22.617  0.00  0.00     0.173 C 
ATOM     38  O   UNL d   1     -18.146 -13.640  22.631  0.00  0.00    -0.648 OA
BRANCH  37  39
ATOM     39  O   UNL d   1     -16.472 -13.985  22.354  0.00  0.00    -0.774 OA
ATOM     40  H   UNL d   1     -16.050 -14.397  22.164  0.00  0.00     0.167 HD
ENDBRANCH  37  39
ENDBRANCH   1  37
TORSDOF 19
ENDMDL
MODEL 3
REMARK VINA RESULT:    -8.325     39.024     41.071
REMARK INTER + INTRA:          -1.784
REMARK INTER:                 -16.377
REMARK INTRA:                  14.593
REMARK UNBOUND:                14.328
REMARK  19 active torsions:
REMARK  status: ('A' for Active; 'I' for Inactive)
REMARK    1  A    between atoms: C_13  and  O_1 
REMARK    2  A    between atoms: O_1  and  C_17 
REMARK    3  A    between atoms: C_14  and  O_2 
REMARK    4  A    between atoms: O_2  and  C_18 
REMARK    5  A    between atoms: O_3  and  C_15 
REMARK    6  A    between atoms: O_4  and  C_16 
REMARK    7  A    between atoms: O_9  and  C_29 
REMARK    8  A    between atoms: O_10  and  C_30 
REMARK    9  A    between atoms: O_11  and  C_33 
REMARK   10  A    between atoms: O_12  and  C_34 
REMARK   11  A    between atoms: C_13  and  C_14 
REMARK   12  A    between atoms: C_13  and  C_15 
REMARK   13  A    between atoms: C_14  and  C_16 
REMARK   14  A    between atoms: C_17  and  C_21 
REMARK   15  A    between atoms: C_18  and  C_22 
REMARK   16  A    between atoms: C_19  and  C_23 
REMARK   17  A    between atoms: C_20  and  C_24 
REMARK   18  A    between atoms: C_21  and  C_23 
REMARK   19  A    between atoms: C_22  and  C_24 
ROOT
ATOM      1  C   UNL d   1     -17.114 -15.833  21.732  0.00  0.00     0.269 C 
ENDROOT
BRANCH   1   2
ATOM      2  O   UNL d   1     -16.436 -16.564  21.812  0.00  0.00    -0.299 OA
BRANCH   2   3
ATOM      3  C   UNL d   1     -16.731 -17.518  21.849  0.00  0.00     0.283 C 
ATOM      4  O   UNL d   1     -16.836 -18.042  21.003  0.00  0.00    -0.260 OA
BRANCH   3   5
ATOM      5  C   UNL d   1     -16.921 -17.950  22.731  0.00  0.00     0.083 C 
BRANCH   5   6
ATOM      6  C   UNL d   1     -16.301 -18.647  23.090  0.00  0.00     0.017 C 
BRANCH   6   7
ATOM      7  C   UNL d   1     -16.356 -18.916  24.052  0.00  0.00    -0.033 A 
ATOM      8  C   UNL d   1     -15.699 -19.571  24.426  0.00  0.00     0.050 A 
ATOM      9  C   UNL d   1     -15.753 -19.841  25.387  0.00  0.00     0.099 A 
ATOM     10  C   UNL d   1     -16.464 -19.455  25.975  0.00  0.00     0.098 A 
ATOM     11  C   UNL d   1     -17.121 -18.801  25.601  0.00  0.00     0.040 A 
ATOM     12  C   UNL d   1     -17.067 -18.531  24.640  0.00  0.00     0.014 A 
BRANCH   9  13
ATOM     13  O   UNL d   1     -15.096 -20.495  25.761  0.00  0.00    -0.358 OA
ATOM     14  H   UNL d   1     -15.169 -20.714  26.336  0.00  0.00     0.217 HD
ENDBRANCH   9  13
BRANCH  10  15
ATOM     15  O   UNL d   1     -16.518 -19.725  26.936  0.00  0.00    -0.358 OA
ATOM     16  H   UNL d   1     -16.210 -20.224  27.136  0.00  0.00     0.217 HD
ENDBRANCH  10  15
ENDBRANCH   6   7
ENDBRANCH   5   6
ENDBRANCH   3   5
ENDBRANCH   2   3
ENDBRANCH   1   2
BRANCH   1  17
ATOM     17  C   UNL d   1     -17.080 -15.048  22.350  0.00  0.00     0.269 C 
BRANCH  17  18
ATOM     18  O   UNL d   1     -17.695 -15.004  23.137  0.00  0.00    -0.299 OA
BRANCH  18  19
ATOM     19  C   UNL d   1     -17.329 -14.809  24.047  0.00  0.00     0.283 C 
ATOM     20  O   UNL d   1     -16.410 -15.117  24.293  0.00  0.00    -0.260 OA
BRANCH  19  21
ATOM     21  C   UNL d   1     -17.882 -14.307  24.712  0.00  0.00     0.083 C 
BRANCH  21  22
ATOM     22  C   UNL d   1     -17.667 -14.364  25.687  0.00  0.00     0.017 C 
BRANCH  22  23
ATOM     23  C   UNL d   1     -18.324 -14.033  26.364  0.00  0.00    -0.033 A 
ATOM     24  C   UNL d   1     -19.302 -14.186  26.228  0.00  0.00     0.050 A 
ATOM     25  C   UNL d   1     -19.959 -13.855  26.905  0.00  0.00     0.099 A 
ATOM     26  C   UNL d   1     -19.637 -13.371  27.719  0.00  0.00     0.098 A 
ATOM     27  C   UNL d   1     -18.659 -13.217  27.855  0.00  0.00     0.040 A 
ATOM     28  C   UNL d   1     -18.002 -13.549  27.177  0.00  0.00     0.014 A 
BRANCH  25  29
ATOM     29  O   UNL d   1     -20.938 -14.008  26.769  0.00  0.00    -0.358 OA
ATOM     30  H   UNL d   1     -21.180 -14.570  26.866  0.00  0.00     0.217 HD
ENDBRANCH  25  29
BRANCH  26  31
ATOM     31  O   UNL d   1     -20.294 -13.039  28.396  0.00  0.00    -0.358 OA
ATOM     32  H   UNL d   1     -20.117 -12.627  28.824  0.00  0.00     0.217 HD
ENDBRANCH  26  31
ENDBRANCH  22  23
ENDBRANCH  21  22
ENDBRANCH  19  21
ENDBRANCH  18  19
ENDBRANCH  17  18
BRANCH  17  33
ATOM     33  C   UNL d   1     -16.430 -14.307  22.181  0.00  0.00     0.173 C 
ATOM     34  O   UNL d   1     -16.763 -13.394  21.946  0.00  0.00    -0.648 OA
BRANCH  33  35
ATOM     35  O   UNL d   1     -15.447 -14.480  22.246  0.00  0.00    -0.774 OA
ATOM     36  H   UNL d   1     -15.227 -15.054  22.167  0.00  0.00     0.167 HD
ENDBRANCH  33  35
ENDBRANCH  17  33
ENDBRANCH   1  17
BRANCH   1  37
ATOM     37  C   UNL d   1     -17.828 -15.888  21.033  0.00  0.00     0.173 C 
ATOM     38  O   UNL d   1     -18.746 -16.199  21.279  0.00  0.00    -0.648 OA
BRANCH  37  39
ATOM     39  O   UNL d   1     -17.623 -15.633  20.088  0.00  0.00    -0.774 OA
ATOM     40  H   UNL d   1     -17.397 -15.070  19.962  0.00  0.00     0.167 HD
ENDBRANCH  37  39
ENDBRANCH   1  37
TORSDOF 19
ENDMDL
MODEL 4
REMARK VINA RESULT:    -8.308     38.494     39.984
REMARK INTER + INTRA:          -1.750
REMARK INTER:                 -15.070
REMARK INTRA:                  13.320
REMARK UNBOUND:                14.328
REMARK  19 active torsions:
REMARK  status: ('A' for Active; 'I' for Inactive)
REMARK    1  A    between atoms: C_13  and  O_1 
REMARK    2  A    between atoms: O_1  and  C_17 
REMARK    3  A    between atoms: C_14  and  O_2 
REMARK    4  A    between atoms: O_2  and  C_18 
REMARK    5  A    between atoms: O_3  and  C_15 
REMARK    6  A    between atoms: O_4  and  C_16 
REMARK    7  A    between atoms: O_9  and  C_29 
REMARK    8  A    between atoms: O_10  and  C_30 
REMARK    9  A    between atoms: O_11  and  C_33 
REMARK   10  A    between atoms: O_12  and  C_34 
REMARK   11  A    between atoms: C_13  and  C_14 
REMARK   12  A    between atoms: C_13  and  C_15 
REMARK   13  A    between atoms: C_14  and  C_16 
REMARK   14  A    between atoms: C_17  and  C_21 
REMARK   15  A    between atoms: C_18  and  C_22 
REMARK   16  A    between atoms: C_19  and  C_23 
REMARK   17  A    between atoms: C_20  and  C_24 
REMARK   18  A    between atoms: C_21  and  C_23 
REMARK   19  A    between atoms: C_22  and  C_24 
ROOT
ATOM      1  C   UNL d   1     -16.379 -17.411  19.745  0.00  0.00     0.269 C 
ENDROOT
BRANCH   1   2
ATOM      2  O   UNL d   1     -16.103 -18.020  20.489  0.00  0.00    -0.299 OA
BRANCH   2   3
ATOM      3  C   UNL d   1     -16.730 -18.198  21.248  0.00  0.00     0.283 C 
ATOM      4  O   UNL d   1     -17.709 -18.027  21.138  0.00  0.00    -0.260 OA
BRANCH   3   5
ATOM      5  C   UNL d   1     -16.377 -18.546  22.116  0.00  0.00     0.083 C 
BRANCH   5   6
ATOM      6  C   UNL d   1     -16.939 -18.495  22.941  0.00  0.00     0.017 C 
BRANCH   6   7
ATOM      7  C   UNL d   1     -16.604 -18.883  23.800  0.00  0.00    -0.033 A 
ATOM      8  C   UNL d   1     -17.109 -18.729  24.649  0.00  0.00     0.050 A 
ATOM      9  C   UNL d   1     -16.774 -19.117  25.507  0.00  0.00     0.099 A 
ATOM     10  C   UNL d   1     -15.934 -19.659  25.517  0.00  0.00     0.098 A 
ATOM     11  C   UNL d   1     -15.429 -19.814  24.668  0.00  0.00     0.040 A 
ATOM     12  C   UNL d   1     -15.764 -19.425  23.809  0.00  0.00     0.014 A 
BRANCH   9  13
ATOM     13  O   UNL d   1     -17.280 -18.963  26.356  0.00  0.00    -0.358 OA
ATOM     14  H   UNL d   1     -17.833 -18.683  26.342  0.00  0.00     0.217 HD
ENDBRANCH   9  13
BRANCH  10  15
ATOM     15  O   UNL d   1     -15.599 -20.048  26.375  0.00  0.00    -0.358 OA
ATOM     16  H   UNL d   1     -15.414 -19.673  26.833  0.00  0.00     0.217 HD
ENDBRANCH  10  15
ENDBRANCH   6   7
ENDBRANCH   5   6
ENDBRANCH   3   5
ENDBRANCH   2   3
ENDBRANCH   1   2
BRANCH   1  17
ATOM     17  C   UNL d   1     -16.024 -16.477  19.704  0.00  0.00     0.269 C 
BRANCH  17  18
ATOM     18  O   UNL d   1     -16.595 -15.712  20.004  0.00  0.00    -0.299 OA
BRANCH  18  19
ATOM     19  C   UNL d   1     -16.185 -14.949  20.503  0.00  0.00     0.283 C 
ATOM     20  O   UNL d   1     -15.968 -14.098  20.025  0.00  0.00    -0.260 OA
BRANCH  19  21
ATOM     21  C   UNL d   1     -15.993 -15.037  21.481  0.00  0.00     0.083 C 
BRANCH  21  22
ATOM     22  C   UNL d   1     -16.576 -14.574  22.149  0.00  0.00     0.017 C 
BRANCH  22  23
ATOM     23  C   UNL d   1     -16.524 -14.824  23.116  0.00  0.00    -0.033 A 
ATOM     24  C   UNL d   1     -17.342 -14.778  23.689  0.00  0.00     0.050 A 
ATOM     25  C   UNL d   1     -17.289 -15.027  24.656  0.00  0.00     0.099 A 
ATOM     26  C   UNL d   1     -16.418 -15.322  25.050  0.00  0.00     0.098 A 
ATOM     27  C   UNL d   1     -15.600 -15.368  24.476  0.00  0.00     0.040 A 
ATOM     28  C   UNL d   1     -15.653 -15.119  23.509  0.00  0.00     0.014 A 
BRANCH  25  29
ATOM     29  O   UNL d   1     -18.107 -14.982  25.229  0.00  0.00    -0.358 OA
ATOM     30  H   UNL d   1     -18.265 -14.448  25.502  0.00  0.00     0.217 HD
ENDBRANCH  25  29
BRANCH  26  31
ATOM     31  O   UNL d   1     -16.366 -15.572  26.017  0.00  0.00    -0.358 OA
ATOM     32  H   UNL d   1     -15.883 -15.386  26.359  0.00  0.00     0.217 HD
ENDBRANCH  26  31
ENDBRANCH  22  23
ENDBRANCH  21  22
ENDBRANCH  19  21
ENDBRANCH  18  19
ENDBRANCH  17  18
BRANCH  17  33
ATOM     33  C   UNL d   1     -15.099 -16.308  19.365  0.00  0.00     0.173 C 
ATOM     34  O   UNL d   1     -14.312 -16.462  19.961  0.00  0.00    -0.648 OA
BRANCH  33  35
ATOM     35  O   UNL d   1     -14.962 -15.985  18.428  0.00  0.00    -0.774 OA
ATOM     36  H   UNL d   1     -14.391 -15.848  18.229  0.00  0.00     0.167 HD
ENDBRANCH  33  35
ENDBRANCH  17  33
ENDBRANCH   1  17
BRANCH   1  37
ATOM     37  C   UNL d   1     -17.010 -17.737  19.041  0.00  0.00     0.173 C 
ATOM     38  O   UNL d   1     -16.795 -18.563  18.519  0.00  0.00    -0.648 OA
BRANCH  37  39
ATOM     39  O   UNL d   1     -17.857 -17.237  18.858  0.00  0.00    -0.774 OA
ATOM     40  H   UNL d   1     -18.104 -16.875  19.296  0.00  0.00     0.167 HD
ENDBRANCH  37  39
ENDBRANCH   1  37
TORSDOF 19
ENDMDL
MODEL 5
REMARK VINA RESULT:    -8.188      0.911      5.960
REMARK INTER + INTRA:          -1.519
REMARK INTER:                 -16.455
REMARK INTRA:                  14.936
REMARK UNBOUND:                14.328
REMARK  19 active torsions:
REMARK  status: ('A' for Active; 'I' for Inactive)
REMARK    1  A    between atoms: C_13  and  O_1 
REMARK    2  A    between atoms: O_1  and  C_17 
REMARK    3  A    between atoms: C_14  and  O_2 
REMARK    4  A    between atoms: O_2  and  C_18 
REMARK    5  A    between atoms: O_3  and  C_15 
REMARK    6  A    between atoms: O_4  and  C_16 
REMARK    7  A    between atoms: O_9  and  C_29 
REMARK    8  A    between atoms: O_10  and  C_30 
REMARK    9  A    between atoms: O_11  and  C_33 
REMARK   10  A    between atoms: O_12  and  C_34 
REMARK   11  A    between atoms: C_13  and  C_14 
REMARK   12  A    between atoms: C_13  and  C_15 
REMARK   13  A    between atoms: C_14  and  C_16 
REMARK   14  A    between atoms: C_17  and  C_21 
REMARK   15  A    between atoms: C_18  and  C_22 
REMARK   16  A    between atoms: C_19  and  C_23 
REMARK   17  A    between atoms: C_20  and  C_24 
REMARK   18  A    between atoms: C_21  and  C_23 
REMARK   19  A    between atoms: C_22  and  C_24 
ROOT
ATOM      1  C   UNL d   1      23.423 -15.868  23.129  0.00  0.00     0.269 C 
ENDROOT
BRANCH   1   2
ATOM      2  O   UNL d   1      22.704 -16.555  23.029  0.00  0.00    -0.299 OA
BRANCH   2   3
ATOM      3  C   UNL d   1      22.506 -16.943  22.129  0.00  0.00     0.283 C 
ATOM      4  O   UNL d   1      22.445 -16.346  21.329  0.00  0.00    -0.260 OA
BRANCH   3   5
ATOM      5  C   UNL d   1      22.369 -17.929  22.029  0.00  0.00     0.083 C 
BRANCH   5   6
ATOM      6  C   UNL d   1      22.067 -18.305  21.153  0.00  0.00     0.017 C 
BRANCH   6   7
ATOM      7  C   UNL d   1      21.544 -19.157  21.128  0.00  0.00    -0.033 A 
ATOM      8  C   UNL d   1      21.433 -19.700  21.961  0.00  0.00     0.050 A 
ATOM      9  C   UNL d   1      20.910 -20.552  21.936  0.00  0.00     0.099 A 
ATOM     10  C   UNL d   1      20.498 -20.861  21.079  0.00  0.00     0.098 A 
ATOM     11  C   UNL d   1      20.609 -20.318  20.247  0.00  0.00     0.040 A 
ATOM     12  C   UNL d   1      21.132 -19.466  20.271  0.00  0.00     0.014 A 
BRANCH   9  13
ATOM     13  O   UNL d   1      20.799 -21.095  22.769  0.00  0.00    -0.358 OA
ATOM     14  H   UNL d   1      20.377 -20.930  23.192  0.00  0.00     0.217 HD
ENDBRANCH   9  13
BRANCH  10  15
ATOM     15  O   UNL d   1      19.975 -21.713  21.054  0.00  0.00    -0.358 OA
ATOM     16  H   UNL d   1      20.231 -22.227  20.821  0.00  0.00     0.217 HD
ENDBRANCH  10  15
ENDBRANCH   6   7
ENDBRANCH   5   6
ENDBRANCH   3   5
ENDBRANCH   2   3
ENDBRANCH   1   2
BRANCH   1  17
ATOM     17  C   UNL d   1      23.263 -15.053  23.687  0.00  0.00     0.269 C 
BRANCH  17  18
ATOM     18  O   UNL d   1      23.806 -14.897  24.512  0.00  0.00    -0.299 OA
BRANCH  18  19
ATOM     19  C   UNL d   1      23.535 -15.319  25.377  0.00  0.00     0.283 C 
ATOM     20  O   UNL d   1      22.637 -15.121  25.769  0.00  0.00    -0.260 OA
BRANCH  19  21
ATOM     21  C   UNL d   1      24.162 -15.938  25.849  0.00  0.00     0.083 C 
BRANCH  21  22
ATOM     22  C   UNL d   1      23.833 -16.499  26.609  0.00  0.00     0.017 C 
BRANCH  22  23
ATOM     23  C   UNL d   1      24.329 -17.327  26.871  0.00  0.00    -0.033 A 
ATOM     24  C   UNL d   1      25.279 -17.265  27.175  0.00  0.00     0.050 A 
ATOM     25  C   UNL d   1      25.775 -18.093  27.437  0.00  0.00     0.099 A 
ATOM     26  C   UNL d   1      25.321 -18.983  27.394  0.00  0.00     0.098 A 
ATOM     27  C   UNL d   1      24.371 -19.045  27.089  0.00  0.00     0.040 A 
ATOM     28  C   UNL d   1      23.874 -18.217  26.827  0.00  0.00     0.014 A 
BRANCH  25  29
ATOM     29  O   UNL d   1      26.725 -18.031  27.742  0.00  0.00    -0.358 OA
ATOM     30  H   UNL d   1      27.071 -18.544  27.787  0.00  0.00     0.217 HD
ENDBRANCH  25  29
BRANCH  26  31
ATOM     31  O   UNL d   1      25.817 -19.811  27.656  0.00  0.00    -0.358 OA
ATOM     32  H   UNL d   1      26.264 -19.782  28.084  0.00  0.00     0.217 HD
ENDBRANCH  26  31
ENDBRANCH  22  23
ENDBRANCH  21  22
ENDBRANCH  19  21
ENDBRANCH  18  19
ENDBRANCH  17  18
BRANCH  17  33
ATOM     33  C   UNL d   1      22.558 -14.396  23.420  0.00  0.00     0.173 C 
ATOM     34  O   UNL d   1      22.821 -13.496  23.072  0.00  0.00    -0.648 OA
BRANCH  33  35
ATOM     35  O   UNL d   1      21.592 -14.638  23.500  0.00  0.00    -0.774 OA
ATOM     36  H   UNL d   1      21.390 -15.184  23.287  0.00  0.00     0.167 HD
ENDBRANCH  33  35
ENDBRANCH  17  33
ENDBRANCH   1  17
BRANCH   1  37
ATOM     37  C   UNL d   1      24.304 -15.995  22.672  0.00  0.00     0.173 C 
ATOM     38  O   UNL d   1      24.875 -16.784  22.899  0.00  0.00    -0.648 OA
BRANCH  37  39
ATOM     39  O   UNL d   1      24.613 -15.334  21.989  0.00  0.00    -0.774 OA
ATOM     40  H   UNL d   1      24.953 -14.845  22.162  0.00  0.00     0.167 HD
ENDBRANCH  37  39
ENDBRANCH   1  37
TORSDOF 19
ENDMDL
