MODEL 1
REMARK VINA RESULT:    -7.444      0.000      0.000
REMARK INTER + INTRA:          -5.501
REMARK INTER:                  -8.962
REMARK INTRA:                   3.461
REMARK UNBOUND:                 3.466
REMARK  6 active torsions:
REMARK  status: ('A' for Active; 'I' for Inactive)
REMARK    1  A    between atoms: O_2  and  C_7 
REMARK    2  A    between atoms: O_3  and  C_13 
REMARK    3  A    between atoms: O_4  and  C_18 
REMARK    4  A    between atoms: O_5  and  C_19 
REMARK    5  A    between atoms: O_6  and  C_21 
REMARK    6  A    between atoms: C_8  and  C_12 
ROOT
ATOM      1  O   UNL d   1      45.267  29.690  -3.058  0.00  0.00    -0.338 OA
ATOM      2  C   UNL d   1      45.199  31.072  -2.017  0.00  0.00     0.156 A 
ATOM      3  C   UNL d   1      45.632  30.212  -2.287  0.00  0.00     0.191 A 
ATOM      4  C   UNL d   1      44.402  31.410  -2.517  0.00  0.00     0.079 A 
ATOM      5  C   UNL d   1      44.037  30.888  -3.288  0.00  0.00     0.011 A 
ATOM      6  C   UNL d   1      44.470  30.028  -3.559  0.00  0.00     0.081 A 
ATOM      7  C   UNL d   1      43.207  31.252  -3.800  0.00  0.00     0.077 A 
ATOM      8  C   UNL d   1      44.101  29.472  -4.359  0.00  0.00     0.074 A 
ATOM      9  C   UNL d   1      42.821  30.713  -4.604  0.00  0.00     0.073 A 
ATOM     10  C   UNL d   1      43.271  29.818  -4.885  0.00  0.00     0.071 A 
ENDROOT
BRANCH   3  11
ATOM     11  C   UNL d   1      46.429  29.874  -1.787  0.00  0.00    -0.024 A 
ATOM     12  C   UNL d   1      46.305  29.287  -0.987  0.00  0.00     0.049 A 
ATOM     13  C   UNL d   1      47.102  28.949  -0.487  0.00  0.00     0.099 A 
ATOM     14  C   UNL d   1      48.023  29.199  -0.786  0.00  0.00     0.098 A 
ATOM     15  C   UNL d   1      48.147  29.786  -1.586  0.00  0.00     0.040 A 
ATOM     16  C   UNL d   1      47.350  30.124  -2.086  0.00  0.00     0.013 A 
BRANCH  13  17
ATOM     17  O   UNL d   1      46.978  28.362   0.313  0.00  0.00    -0.358 OA
ATOM     18  H   UNL d   1      47.098  27.754   0.273  0.00  0.00     0.217 HD
ENDBRANCH  13  17
BRANCH  14  19
ATOM     19  O   UNL d   1      48.820  28.861  -0.286  0.00  0.00    -0.358 OA
ATOM     20  H   UNL d   1      48.768  28.363   0.080  0.00  0.00     0.217 HD
ENDBRANCH  14  19
ENDBRANCH   3  11
BRANCH   2  21
ATOM     21  O   UNL d   1      45.564  31.595  -1.246  0.00  0.00    -0.392 OA
ATOM     22  H   UNL d   1      45.213  32.024  -0.969  0.00  0.00     0.210 HD
ENDBRANCH   2  21
BRANCH   7  23
ATOM     23  O   UNL d   1      42.782  32.113  -3.521  0.00  0.00    -0.360 OA
ATOM     24  H   UNL d   1      43.033  32.653  -3.695  0.00  0.00     0.217 HD
ENDBRANCH   7  23
BRANCH  10  25
ATOM     25  O   UNL d   1      42.909  29.293  -5.656  0.00  0.00    -0.361 OA
ATOM     26  H   UNL d   1      43.295  29.060  -6.081  0.00  0.00     0.217 HD
ENDBRANCH  10  25
TORSDOF 6
ENDMDL
MODEL 2
REMARK VINA RESULT:    -7.352      2.620      3.765
REMARK INTER + INTRA:          -5.391
REMARK INTER:                  -8.913
REMARK INTRA:                   3.523
REMARK UNBOUND:                 3.466
REMARK  6 active torsions:
REMARK  status: ('A' for Active; 'I' for Inactive)
REMARK    1  A    between atoms: O_2  and  C_7 
REMARK    2  A    between atoms: O_3  and  C_13 
REMARK    3  A    between atoms: O_4  and  C_18 
REMARK    4  A    between atoms: O_5  and  C_19 
REMARK    5  A    between atoms: O_6  and  C_21 
REMARK    6  A    between atoms: C_8  and  C_12 
ROOT
ATOM      1  O   UNL d   1      45.109  30.706   0.670  0.00  0.00    -0.338 OA
ATOM      2  C   UNL d   1      45.229  31.371  -0.925  0.00  0.00     0.156 A 
ATOM      3  C   UNL d   1      45.589  30.778  -0.204  0.00  0.00     0.191 A 
ATOM      4  C   UNL d   1      44.389  31.891  -0.771  0.00  0.00     0.079 A 
ATOM      5  C   UNL d   1      43.909  31.819   0.104  0.00  0.00     0.011 A 
ATOM      6  C   UNL d   1      44.269  31.226   0.824  0.00  0.00     0.081 A 
ATOM      7  C   UNL d   1      43.036  32.367   0.250  0.00  0.00     0.077 A 
ATOM      8  C   UNL d   1      43.781  31.141   1.740  0.00  0.00     0.074 A 
ATOM      9  C   UNL d   1      42.531  32.297   1.158  0.00  0.00     0.073 A 
ATOM     10  C   UNL d   1      42.905  31.680   1.908  0.00  0.00     0.071 A 
ENDROOT
BRANCH   3  11
ATOM     11  C   UNL d   1      46.428  30.257  -0.358  0.00  0.00    -0.024 A 
ATOM     12  C   UNL d   1      46.378  29.289  -0.603  0.00  0.00     0.049 A 
ATOM     13  C   UNL d   1      47.218  28.768  -0.757  0.00  0.00     0.099 A 
ATOM     14  C   UNL d   1      48.108  29.216  -0.666  0.00  0.00     0.098 A 
ATOM     15  C   UNL d   1      48.158  30.184  -0.422  0.00  0.00     0.040 A 
ATOM     16  C   UNL d   1      47.318  30.705  -0.268  0.00  0.00     0.013 A 
BRANCH  13  17
ATOM     17  O   UNL d   1      47.168  27.800  -1.002  0.00  0.00    -0.358 OA
ATOM     18  H   UNL d   1      47.335  27.614  -1.569  0.00  0.00     0.217 HD
ENDBRANCH  13  17
BRANCH  14  19
ATOM     19  O   UNL d   1      48.947  28.695  -0.820  0.00  0.00    -0.358 OA
ATOM     20  H   UNL d   1      49.449  28.807  -0.474  0.00  0.00     0.217 HD
ENDBRANCH  14  19
ENDBRANCH   3  11
BRANCH   2  21
ATOM     21  O   UNL d   1      45.708  31.443  -1.799  0.00  0.00    -0.392 OA
ATOM     22  H   UNL d   1      45.403  31.630  -2.305  0.00  0.00     0.210 HD
ENDBRANCH   2  21
BRANCH   7  23
ATOM     23  O   UNL d   1      42.685  32.957  -0.478  0.00  0.00    -0.360 OA
ATOM     24  H   UNL d   1      42.351  32.714  -0.939  0.00  0.00     0.217 HD
ENDBRANCH   7  23
BRANCH  10  25
ATOM     25  O   UNL d   1      42.428  31.605   2.783  0.00  0.00    -0.361 OA
ATOM     26  H   UNL d   1      42.663  31.876   3.289  0.00  0.00     0.217 HD
ENDBRANCH  10  25
TORSDOF 6
ENDMDL
MODEL 3
REMARK VINA RESULT:    -6.970      3.956      5.907
REMARK INTER + INTRA:          -4.930
REMARK INTER:                  -8.391
REMARK INTRA:                   3.461
REMARK UNBOUND:                 3.466
REMARK  6 active torsions:
REMARK  status: ('A' for Active; 'I' for Inactive)
REMARK    1  A    between atoms: O_2  and  C_7 
REMARK    2  A    between atoms: O_3  and  C_13 
REMARK    3  A    between atoms: O_4  and  C_18 
REMARK    4  A    between atoms: O_5  and  C_19 
REMARK    5  A    between atoms: O_6  and  C_21 
REMARK    6  A    between atoms: C_8  and  C_12 
ROOT
ATOM      1  O   UNL d   1      43.864  31.083   1.118  0.00  0.00    -0.338 OA
ATOM      2  C   UNL d   1      43.433  32.348   0.017  0.00  0.00     0.156 A 
ATOM      3  C   UNL d   1      43.255  31.830   0.853  0.00  0.00     0.191 A 
ATOM      4  C   UNL d   1      44.220  32.119  -0.555  0.00  0.00     0.079 A 
ATOM      5  C   UNL d   1      44.830  31.372  -0.290  0.00  0.00     0.011 A 
ATOM      6  C   UNL d   1      44.652  30.854   0.546  0.00  0.00     0.081 A 
ATOM      7  C   UNL d   1      45.646  31.145  -0.896  0.00  0.00     0.077 A 
ATOM      8  C   UNL d   1      45.278  30.073   0.836  0.00  0.00     0.074 A 
ATOM      9  C   UNL d   1      46.286  30.368  -0.626  0.00  0.00     0.073 A 
ATOM     10  C   UNL d   1      46.100  29.828   0.245  0.00  0.00     0.071 A 
ENDROOT
BRANCH   3  11
ATOM     11  C   UNL d   1      42.467  32.059   1.425  0.00  0.00    -0.024 A 
ATOM     12  C   UNL d   1      41.584  31.621   1.258  0.00  0.00     0.049 A 
ATOM     13  C   UNL d   1      40.796  31.850   1.830  0.00  0.00     0.099 A 
ATOM     14  C   UNL d   1      40.892  32.517   2.569  0.00  0.00     0.098 A 
ATOM     15  C   UNL d   1      41.775  32.955   2.736  0.00  0.00     0.040 A 
ATOM     16  C   UNL d   1      42.563  32.726   2.164  0.00  0.00     0.013 A 
BRANCH  13  17
ATOM     17  O   UNL d   1      39.913  31.412   1.663  0.00  0.00    -0.358 OA
ATOM     18  H   UNL d   1      39.757  30.900   1.975  0.00  0.00     0.217 HD
ENDBRANCH  13  17
BRANCH  14  19
ATOM     19  O   UNL d   1      40.104  32.746   3.141  0.00  0.00    -0.358 OA
ATOM     20  H   UNL d   1      40.038  33.322   3.361  0.00  0.00     0.217 HD
ENDBRANCH  14  19
ENDBRANCH   3  11
BRANCH   2  21
ATOM     21  O   UNL d   1      42.823  33.095  -0.248  0.00  0.00    -0.392 OA
ATOM     22  H   UNL d   1      42.905  33.662  -0.010  0.00  0.00     0.210 HD
ENDBRANCH   2  21
BRANCH   7  23
ATOM     23  O   UNL d   1      45.815  31.669  -1.730  0.00  0.00    -0.360 OA
ATOM     24  H   UNL d   1      46.279  31.510  -2.108  0.00  0.00     0.217 HD
ENDBRANCH   7  23
BRANCH  10  25
ATOM     25  O   UNL d   1      46.708  29.081   0.513  0.00  0.00    -0.361 OA
ATOM     26  H   UNL d   1      46.699  28.866   1.093  0.00  0.00     0.217 HD
ENDBRANCH  10  25
TORSDOF 6
ENDMDL
MODEL 4
REMARK VINA RESULT:    -6.755      1.483      5.009
REMARK INTER + INTRA:          -4.672
REMARK INTER:                  -8.260
REMARK INTRA:                   3.588
REMARK UNBOUND:                 3.466
REMARK  6 active torsions:
REMARK  status: ('A' for Active; 'I' for Inactive)
REMARK    1  A    between atoms: O_2  and  C_7 
REMARK    2  A    between atoms: O_3  and  C_13 
REMARK    3  A    between atoms: O_4  and  C_18 
REMARK    4  A    between atoms: O_5  and  C_19 
REMARK    5  A    between atoms: O_6  and  C_21 
REMARK    6  A    between atoms: C_8  and  C_12 
ROOT
ATOM      1  O   UNL d   1      46.061  30.204  -3.488  0.00  0.00    -0.338 OA
ATOM      2  C   UNL d   1      44.622  31.025  -2.979  0.00  0.00     0.156 A 
ATOM      3  C   UNL d   1      45.160  30.585  -3.699  0.00  0.00     0.191 A 
ATOM      4  C   UNL d   1      44.985  31.084  -2.049  0.00  0.00     0.079 A 
ATOM      5  C   UNL d   1      45.885  30.703  -1.838  0.00  0.00     0.011 A 
ATOM      6  C   UNL d   1      46.423  30.263  -2.557  0.00  0.00     0.081 A 
ATOM      7  C   UNL d   1      46.249  30.772  -0.865  0.00  0.00     0.077 A 
ATOM      8  C   UNL d   1      47.362  29.862  -2.353  0.00  0.00     0.074 A 
ATOM      9  C   UNL d   1      47.186  30.377  -0.638  0.00  0.00     0.073 A 
ATOM     10  C   UNL d   1      47.746  29.920  -1.386  0.00  0.00     0.071 A 
ENDROOT
BRANCH   3  11
ATOM     11  C   UNL d   1      44.798  30.526  -4.629  0.00  0.00    -0.024 A 
ATOM     12  C   UNL d   1      45.154  31.129  -5.343  0.00  0.00     0.049 A 
ATOM     13  C   UNL d   1      44.792  31.070  -6.273  0.00  0.00     0.099 A 
ATOM     14  C   UNL d   1      44.074  30.408  -6.489  0.00  0.00     0.098 A 
ATOM     15  C   UNL d   1      43.718  29.806  -5.775  0.00  0.00     0.040 A 
ATOM     16  C   UNL d   1      44.080  29.865  -4.845  0.00  0.00     0.013 A 
BRANCH  13  17
ATOM     17  O   UNL d   1      45.148  31.672  -6.988  0.00  0.00    -0.358 OA
ATOM     18  H   UNL d   1      45.490  31.438  -7.449  0.00  0.00     0.217 HD
ENDBRANCH  13  17
BRANCH  14  19
ATOM     19  O   UNL d   1      43.711  30.349  -7.419  0.00  0.00    -0.358 OA
ATOM     20  H   UNL d   1      43.380  30.818  -7.653  0.00  0.00     0.217 HD
ENDBRANCH  14  19
ENDBRANCH   3  11
BRANCH   2  21
ATOM     21  O   UNL d   1      43.722  31.406  -3.190  0.00  0.00    -0.392 OA
ATOM     22  H   UNL d   1      43.244  31.027  -3.304  0.00  0.00     0.210 HD
ENDBRANCH   2  21
BRANCH   7  23
ATOM     23  O   UNL d   1      45.702  31.214  -0.154  0.00  0.00    -0.360 OA
ATOM     24  H   UNL d   1      45.279  30.887   0.159  0.00  0.00     0.217 HD
ENDBRANCH   7  23
BRANCH  10  25
ATOM     25  O   UNL d   1      48.647  29.538  -1.179  0.00  0.00    -0.361 OA
ATOM     26  H   UNL d   1      48.806  29.419  -0.592  0.00  0.00     0.217 HD
ENDBRANCH  10  25
TORSDOF 6
ENDMDL
MODEL 5
REMARK VINA RESULT:    -6.736     17.862     19.586
REMARK INTER + INTRA:          -4.648
REMARK INTER:                  -8.118
REMARK INTRA:                   3.469
REMARK UNBOUND:                 3.466
REMARK  6 active torsions:
REMARK  status: ('A' for Active; 'I' for Inactive)
REMARK    1  A    between atoms: O_2  and  C_7 
REMARK    2  A    between atoms: O_3  and  C_13 
REMARK    3  A    between atoms: O_4  and  C_18 
REMARK    4  A    between atoms: O_5  and  C_19 
REMARK    5  A    between atoms: O_6  and  C_21 
REMARK    6  A    between atoms: C_8  and  C_12 
ROOT
ATOM      1  O   UNL d   1      46.495  44.540 -15.412  0.00  0.00    -0.338 OA
ATOM      2  C   UNL d   1      46.383  44.877 -13.716  0.00  0.00     0.156 A 
ATOM      3  C   UNL d   1      45.967  44.545 -14.563  0.00  0.00     0.191 A 
ATOM      4  C   UNL d   1      47.328  45.203 -13.718  0.00  0.00     0.079 A 
ATOM      5  C   UNL d   1      47.857  45.198 -14.567  0.00  0.00     0.011 A 
ATOM      6  C   UNL d   1      47.441  44.866 -15.414  0.00  0.00     0.081 A 
ATOM      7  C   UNL d   1      48.840  45.540 -14.554  0.00  0.00     0.077 A 
ATOM      8  C   UNL d   1      47.979  44.855 -16.306  0.00  0.00     0.074 A 
ATOM      9  C   UNL d   1      49.398  45.538 -15.434  0.00  0.00     0.073 A 
ATOM     10  C   UNL d   1      48.964  45.193 -16.316  0.00  0.00     0.071 A 
ENDROOT
BRANCH   3  11
ATOM     11  C   UNL d   1      45.021  44.219 -14.561  0.00  0.00    -0.024 A 
ATOM     12  C   UNL d   1      44.268  44.869 -14.659  0.00  0.00     0.049 A 
ATOM     13  C   UNL d   1      43.323  44.543 -14.657  0.00  0.00     0.099 A 
ATOM     14  C   UNL d   1      43.131  43.567 -14.557  0.00  0.00     0.098 A 
ATOM     15  C   UNL d   1      43.884  42.917 -14.459  0.00  0.00     0.040 A 
ATOM     16  C   UNL d   1      44.830  43.243 -14.461  0.00  0.00     0.013 A 
BRANCH  13  17
ATOM     17  O   UNL d   1      42.569  45.193 -14.755  0.00  0.00    -0.358 OA
ATOM     18  H   UNL d   1      42.330  45.469 -14.254  0.00  0.00     0.217 HD
ENDBRANCH  13  17
BRANCH  14  19
ATOM     19  O   UNL d   1      42.185  43.241 -14.555  0.00  0.00    -0.358 OA
ATOM     20  H   UNL d   1      41.772  43.490 -14.166  0.00  0.00     0.217 HD
ENDBRANCH  14  19
ENDBRANCH   3  11
BRANCH   2  21
ATOM     21  O   UNL d   1      45.854  44.882 -12.868  0.00  0.00    -0.392 OA
ATOM     22  H   UNL d   1      45.345  45.233 -12.822  0.00  0.00     0.210 HD
ENDBRANCH   2  21
BRANCH   7  23
ATOM     23  O   UNL d   1      49.247  45.869 -13.701  0.00  0.00    -0.360 OA
ATOM     24  H   UNL d   1      48.926  46.249 -13.332  0.00  0.00     0.217 HD
ENDBRANCH   7  23
BRANCH  10  25
ATOM     25  O   UNL d   1      49.490  45.187 -17.166  0.00  0.00    -0.361 OA
ATOM     26  H   UNL d   1      49.493  45.685 -17.533  0.00  0.00     0.217 HD
ENDBRANCH  10  25
TORSDOF 6
ENDMDL
