MODEL 1
REMARK VINA RESULT:    -9.416      0.000      0.000
REMARK INTER + INTRA:          -4.251
REMARK INTER:                 -12.814
REMARK INTRA:                   8.563
REMARK UNBOUND:                 8.468
REMARK  9 active torsions:
REMARK  status: ('A' for Active; 'I' for Inactive)
REMARK    1  A    between atoms: O_3  and  C_17 
REMARK    2  A    between atoms: O_4  and  C_18 
REMARK    3  A    between atoms: O_5  and  C_19 
REMARK    4  A    between atoms: O_7  and  C_32 
REMARK    5  A    between atoms: O_9  and  C_36 
REMARK    6  A    between atoms: O_10  and  C_40 
REMARK    7  A    between atoms: C_11  and  C_13 
REMARK    8  A    between atoms: C_15  and  C_20 
REMARK    9  A    between atoms: C_22  and  C_29 
ROOT
ATOM      1  O   UNL d   1      44.734  30.057  -1.934  0.00  0.00    -0.308 OA
ATOM      2  O   UNL d   1      44.018  28.085  -4.174  0.00  0.00    -0.287 OA
ATOM      3  C   UNL d   1      43.177  30.841  -2.184  0.00  0.00     0.045 A 
ATOM      4  C   UNL d   1      43.824  30.122  -2.438  0.00  0.00     0.107 A 
ATOM      5  C   UNL d   1      43.594  29.477  -3.167  0.00  0.00     0.082 A 
ATOM      6  C   UNL d   1      42.300  30.915  -2.659  0.00  0.00     0.082 A 
ATOM      7  C   UNL d   1      42.717  29.552  -3.642  0.00  0.00     0.085 A 
ATOM      8  C   UNL d   1      42.071  30.271  -3.388  0.00  0.00     0.075 A 
ATOM      9  C   UNL d   1      45.413  29.311  -2.194  0.00  0.00     0.090 A 
ATOM     10  C   UNL d   1      44.258  28.724  -3.443  0.00  0.00     0.190 A 
ATOM     11  C   UNL d   1      45.173  28.639  -2.954  0.00  0.00     0.094 A 
ENDROOT
BRANCH   3  12
ATOM     12  C   UNL d   1      43.407  31.485  -1.454  0.00  0.00     0.014 A 
ATOM     13  C   UNL d   1      43.125  31.297  -0.514  0.00  0.00     0.029 A 
ATOM     14  C   UNL d   1      43.355  31.941   0.216  0.00  0.00    -0.001 A 
ATOM     15  C   UNL d   1      43.867  32.774   0.004  0.00  0.00     0.017 A 
ATOM     16  C   UNL d   1      44.149  32.962  -0.936  0.00  0.00     0.038 A 
ATOM     17  C   UNL d   1      43.919  32.317  -1.666  0.00  0.00     0.076 A 
BRANCH  14  18
ATOM     18  C   UNL d   1      43.072  31.753   1.156  0.00  0.00     0.090 A 
ATOM     19  O   UNL d   1      42.310  32.259   1.560  0.00  0.00    -0.309 OA
ATOM     20  C   UNL d   1      42.028  32.071   2.501  0.00  0.00     0.095 A 
ATOM     21  C   UNL d   1      42.508  31.377   3.038  0.00  0.00     0.081 A 
ATOM     22  C   UNL d   1      41.232  32.607   2.908  0.00  0.00     0.075 A 
ATOM     23  C   UNL d   1      43.270  30.871   2.634  0.00  0.00     0.190 A 
ATOM     24  C   UNL d   1      42.225  31.170   4.019  0.00  0.00     0.085 A 
ATOM     25  O   UNL d   1      43.749  30.176   3.170  0.00  0.00    -0.287 OA
ATOM     26  C   UNL d   1      43.552  31.059   1.693  0.00  0.00     0.094 A 
ATOM     27  C   UNL d   1      41.432  31.693   4.447  0.00  0.00     0.074 A 
ATOM     28  C   UNL d   1      40.932  32.417   3.888  0.00  0.00     0.071 A 
BRANCH  24  29
ATOM     29  O   UNL d   1      42.711  30.474   4.546  0.00  0.00    -0.360 OA
ATOM     30  H   UNL d   1      43.292  30.317   4.393  0.00  0.00     0.217 HD
ENDBRANCH  24  29
BRANCH  28  31
ATOM     31  O   UNL d   1      40.170  32.925   4.288  0.00  0.00    -0.361 OA
ATOM     32  H   UNL d   1      40.267  33.294   4.777  0.00  0.00     0.217 HD
ENDBRANCH  28  31
ENDBRANCH  14  18
BRANCH  17  33
ATOM     33  O   UNL d   1      44.202  32.505  -2.606  0.00  0.00    -0.360 OA
ATOM     34  H   UNL d   1      43.779  32.661  -3.032  0.00  0.00     0.217 HD
ENDBRANCH  17  33
ENDBRANCH   3  12
BRANCH   6  35
ATOM     35  O   UNL d   1      41.654  31.634  -2.404  0.00  0.00    -0.360 OA
ATOM     36  H   UNL d   1      41.303  31.903  -2.839  0.00  0.00     0.217 HD
ENDBRANCH   6  35
BRANCH   9  37
ATOM     37  C   UNL d   1      46.289  29.240  -1.716  0.00  0.00    -0.002 A 
ATOM     38  C   UNL d   1      47.067  29.792  -2.016  0.00  0.00     0.017 A 
ATOM     39  C   UNL d   1      47.943  29.721  -1.539  0.00  0.00     0.037 A 
ATOM     40  C   UNL d   1      48.040  29.099  -0.762  0.00  0.00     0.065 A 
ATOM     41  C   UNL d   1      47.262  28.547  -0.462  0.00  0.00     0.037 A 
ATOM     42  C   UNL d   1      46.386  28.618  -0.940  0.00  0.00     0.017 A 
BRANCH  40  43
ATOM     43  O   UNL d   1      48.916  29.028  -0.285  0.00  0.00    -0.361 OA
ATOM     44  H   UNL d   1      49.177  29.534  -0.038  0.00  0.00     0.217 HD
ENDBRANCH  40  43
ENDBRANCH   9  37
BRANCH   7  45
ATOM     45  O   UNL d   1      42.488  28.908  -4.372  0.00  0.00    -0.360 OA
ATOM     46  H   UNL d   1      42.196  29.107  -4.881  0.00  0.00     0.217 HD
ENDBRANCH   7  45
TORSDOF 9
ENDMDL
MODEL 2
REMARK VINA RESULT:    -8.849      1.535      3.631
REMARK INTER + INTRA:          -3.485
REMARK INTER:                 -12.084
REMARK INTRA:                   8.599
REMARK UNBOUND:                 8.468
REMARK  9 active torsions:
REMARK  status: ('A' for Active; 'I' for Inactive)
REMARK    1  A    between atoms: O_3  and  C_17 
REMARK    2  A    between atoms: O_4  and  C_18 
REMARK    3  A    between atoms: O_5  and  C_19 
REMARK    4  A    between atoms: O_7  and  C_32 
REMARK    5  A    between atoms: O_9  and  C_36 
REMARK    6  A    between atoms: O_10  and  C_40 
REMARK    7  A    between atoms: C_11  and  C_13 
REMARK    8  A    between atoms: C_15  and  C_20 
REMARK    9  A    between atoms: C_22  and  C_29 
ROOT
ATOM      1  O   UNL d   1      44.153  30.181  -2.150  0.00  0.00    -0.308 OA
ATOM      2  O   UNL d   1      45.779  27.668  -2.828  0.00  0.00    -0.287 OA
ATOM      3  C   UNL d   1      45.081  30.328  -0.661  0.00  0.00     0.045 A 
ATOM      4  C   UNL d   1      44.897  29.832  -1.510  0.00  0.00     0.107 A 
ATOM      5  C   UNL d   1      45.425  29.013  -1.734  0.00  0.00     0.082 A 
ATOM      6  C   UNL d   1      45.792  30.005  -0.037  0.00  0.00     0.082 A 
ATOM      7  C   UNL d   1      46.136  28.690  -1.110  0.00  0.00     0.085 A 
ATOM      8  C   UNL d   1      46.320  29.186  -0.261  0.00  0.00     0.075 A 
ATOM      9  C   UNL d   1      43.956  29.669  -3.035  0.00  0.00     0.090 A 
ATOM     10  C   UNL d   1      45.245  28.486  -2.614  0.00  0.00     0.190 A 
ATOM     11  C   UNL d   1      44.506  28.815  -3.269  0.00  0.00     0.094 A 
ENDROOT
BRANCH   3  12
ATOM     12  C   UNL d   1      44.553  31.148  -0.437  0.00  0.00     0.014 A 
ATOM     13  C   UNL d   1      43.722  31.072   0.114  0.00  0.00     0.029 A 
ATOM     14  C   UNL d   1      43.194  31.891   0.338  0.00  0.00    -0.001 A 
ATOM     15  C   UNL d   1      43.498  32.786   0.012  0.00  0.00     0.017 A 
ATOM     16  C   UNL d   1      44.329  32.862  -0.539  0.00  0.00     0.038 A 
ATOM     17  C   UNL d   1      44.857  32.043  -0.763  0.00  0.00     0.076 A 
BRANCH  14  18
ATOM     18  C   UNL d   1      42.363  31.815   0.889  0.00  0.00     0.090 A 
ATOM     19  O   UNL d   1      42.307  32.276   1.775  0.00  0.00    -0.309 OA
ATOM     20  C   UNL d   1      41.476  32.200   2.326  0.00  0.00     0.095 A 
ATOM     21  C   UNL d   1      40.701  31.663   1.991  0.00  0.00     0.081 A 
ATOM     22  C   UNL d   1      41.431  32.685   3.247  0.00  0.00     0.075 A 
ATOM     23  C   UNL d   1      40.757  31.203   1.105  0.00  0.00     0.190 A 
ATOM     24  C   UNL d   1      39.829  31.575   2.553  0.00  0.00     0.085 A 
ATOM     25  O   UNL d   1      39.983  30.667   0.770  0.00  0.00    -0.287 OA
ATOM     26  C   UNL d   1      41.589  31.279   0.554  0.00  0.00     0.094 A 
ATOM     27  C   UNL d   1      39.762  32.052   3.477  0.00  0.00     0.074 A 
ATOM     28  C   UNL d   1      40.569  32.611   3.826  0.00  0.00     0.071 A 
BRANCH  24  29
ATOM     29  O   UNL d   1      39.060  31.036   2.208  0.00  0.00    -0.360 OA
ATOM     30  H   UNL d   1      38.548  31.322   2.005  0.00  0.00     0.217 HD
ENDBRANCH  24  29
BRANCH  28  31
ATOM     31  O   UNL d   1      40.516  33.073   4.712  0.00  0.00    -0.361 OA
ATOM     32  H   UNL d   1      40.304  33.654   4.746  0.00  0.00     0.217 HD
ENDBRANCH  28  31
ENDBRANCH  14  18
BRANCH  17  33
ATOM     33  O   UNL d   1      45.688  32.119  -1.314  0.00  0.00    -0.360 OA
ATOM     34  H   UNL d   1      45.680  32.440  -1.845  0.00  0.00     0.217 HD
ENDBRANCH  17  33
ENDBRANCH   3  12
BRANCH   6  35
ATOM     35  O   UNL d   1      45.976  30.502   0.811  0.00  0.00    -0.360 OA
ATOM     36  H   UNL d   1      45.564  30.913   1.026  0.00  0.00     0.217 HD
ENDBRANCH   6  35
BRANCH   9  37
ATOM     37  C   UNL d   1      43.243  29.996  -3.657  0.00  0.00    -0.002 A 
ATOM     38  C   UNL d   1      43.474  30.638  -4.388  0.00  0.00     0.017 A 
ATOM     39  C   UNL d   1      42.763  30.965  -5.010  0.00  0.00     0.037 A 
ATOM     40  C   UNL d   1      41.820  30.649  -4.900  0.00  0.00     0.065 A 
ATOM     41  C   UNL d   1      41.589  30.006  -4.169  0.00  0.00     0.037 A 
ATOM     42  C   UNL d   1      42.302  29.680  -3.548  0.00  0.00     0.017 A 
BRANCH  40  43
ATOM     43  O   UNL d   1      41.108  30.975  -5.522  0.00  0.00    -0.361 OA
ATOM     44  H   UNL d   1      40.512  30.844  -5.408  0.00  0.00     0.217 HD
ENDBRANCH  40  43
ENDBRANCH   9  37
BRANCH   7  45
ATOM     45  O   UNL d   1      46.664  27.871  -1.334  0.00  0.00    -0.360 OA
ATOM     46  H   UNL d   1      47.208  27.923  -1.627  0.00  0.00     0.217 HD
ENDBRANCH   7  45
TORSDOF 9
ENDMDL
MODEL 3
REMARK VINA RESULT:    -8.797     19.174     22.149
REMARK INTER + INTRA:          -3.415
REMARK INTER:                 -11.882
REMARK INTRA:                   8.468
REMARK UNBOUND:                 8.468
REMARK  9 active torsions:
REMARK  status: ('A' for Active; 'I' for Inactive)
REMARK    1  A    between atoms: O_3  and  C_17 
REMARK    2  A    between atoms: O_4  and  C_18 
REMARK    3  A    between atoms: O_5  and  C_19 
REMARK    4  A    between atoms: O_7  and  C_32 
REMARK    5  A    between atoms: O_9  and  C_36 
REMARK    6  A    between atoms: O_10  and  C_40 
REMARK    7  A    between atoms: C_11  and  C_13 
REMARK    8  A    between atoms: C_15  and  C_20 
REMARK    9  A    between atoms: C_22  and  C_29 
ROOT
ATOM      1  O   UNL d   1      46.682  44.734 -14.873  0.00  0.00    -0.308 OA
ATOM      2  O   UNL d   1      47.635  44.766 -11.956  0.00  0.00    -0.287 OA
ATOM      3  C   UNL d   1      48.222  45.447 -15.340  0.00  0.00     0.045 A 
ATOM      4  C   UNL d   1      47.623  45.101 -14.618  0.00  0.00     0.107 A 
ATOM      5  C   UNL d   1      47.931  45.109 -13.666  0.00  0.00     0.082 A 
ATOM      6  C   UNL d   1      49.128  45.802 -15.110  0.00  0.00     0.082 A 
ATOM      7  C   UNL d   1      48.837  45.465 -13.437  0.00  0.00     0.085 A 
ATOM      8  C   UNL d   1      49.436  45.811 -14.159  0.00  0.00     0.075 A 
ATOM      9  C   UNL d   1      46.053  44.371 -14.126  0.00  0.00     0.090 A 
ATOM     10  C   UNL d   1      47.318  44.752 -12.904  0.00  0.00     0.190 A 
ATOM     11  C   UNL d   1      46.373  44.381 -13.135  0.00  0.00     0.094 A 
ENDROOT
BRANCH   3  12
ATOM     12  C   UNL d   1      47.915  45.438 -16.292  0.00  0.00     0.014 A 
ATOM     13  C   UNL d   1      48.068  44.629 -16.859  0.00  0.00     0.029 A 
ATOM     14  C   UNL d   1      47.761  44.620 -17.811  0.00  0.00    -0.001 A 
ATOM     15  C   UNL d   1      47.301  45.420 -18.195  0.00  0.00     0.017 A 
ATOM     16  C   UNL d   1      47.148  46.229 -17.628  0.00  0.00     0.038 A 
ATOM     17  C   UNL d   1      47.455  46.238 -16.676  0.00  0.00     0.076 A 
BRANCH  14  18
ATOM     18  C   UNL d   1      47.914  43.811 -18.378  0.00  0.00     0.090 A 
ATOM     19  O   UNL d   1      47.200  43.116 -18.461  0.00  0.00    -0.309 OA
ATOM     20  C   UNL d   1      47.353  42.307 -19.028  0.00  0.00     0.095 A 
ATOM     21  C   UNL d   1      48.220  42.192 -19.512  0.00  0.00     0.081 A 
ATOM     22  C   UNL d   1      46.599  41.591 -19.105  0.00  0.00     0.075 A 
ATOM     23  C   UNL d   1      48.935  42.887 -19.429  0.00  0.00     0.190 A 
ATOM     24  C   UNL d   1      48.394  41.355 -20.107  0.00  0.00     0.085 A 
ATOM     25  O   UNL d   1      49.802  42.773 -19.914  0.00  0.00    -0.287 OA
ATOM     26  C   UNL d   1      48.782  43.696 -18.862  0.00  0.00     0.094 A 
ATOM     27  C   UNL d   1      47.655  40.627 -20.198  0.00  0.00     0.074 A 
ATOM     28  C   UNL d   1      46.751  40.745 -19.694  0.00  0.00     0.071 A 
BRANCH  24  29
ATOM     29  O   UNL d   1      49.265  41.251 -20.587  0.00  0.00    -0.360 OA
ATOM     30  H   UNL d   1      49.438  40.694 -20.800  0.00  0.00     0.217 HD
ENDBRANCH  24  29
BRANCH  28  31
ATOM     31  O   UNL d   1      46.035  40.053 -19.775  0.00  0.00    -0.361 OA
ATOM     32  H   UNL d   1      45.443  40.204 -19.665  0.00  0.00     0.217 HD
ENDBRANCH  28  31
ENDBRANCH  14  18
BRANCH  17  33
ATOM     33  O   UNL d   1      47.302  47.047 -16.109  0.00  0.00    -0.360 OA
ATOM     34  H   UNL d   1      46.792  47.088 -15.758  0.00  0.00     0.217 HD
ENDBRANCH  17  33
ENDBRANCH   3  12
BRANCH   6  35
ATOM     35  O   UNL d   1      49.727  46.148 -15.832  0.00  0.00    -0.360 OA
ATOM     36  H   UNL d   1      49.664  46.731 -16.035  0.00  0.00     0.217 HD
ENDBRANCH   6  35
BRANCH   9  37
ATOM     37  C   UNL d   1      45.147  44.017 -14.360  0.00  0.00    -0.002 A 
ATOM     38  C   UNL d   1      45.063  43.189 -14.915  0.00  0.00     0.017 A 
ATOM     39  C   UNL d   1      44.158  42.834 -15.149  0.00  0.00     0.037 A 
ATOM     40  C   UNL d   1      43.338  43.307 -14.829  0.00  0.00     0.065 A 
ATOM     41  C   UNL d   1      43.422  44.135 -14.274  0.00  0.00     0.037 A 
ATOM     42  C   UNL d   1      44.327  44.490 -14.040  0.00  0.00     0.017 A 
BRANCH  40  43
ATOM     43  O   UNL d   1      42.432  42.953 -15.063  0.00  0.00    -0.361 OA
ATOM     44  H   UNL d   1      41.923  43.224 -14.833  0.00  0.00     0.217 HD
ENDBRANCH  40  43
ENDBRANCH   9  37
BRANCH   7  45
ATOM     45  O   UNL d   1      49.144  45.474 -12.485  0.00  0.00    -0.360 OA
ATOM     46  H   UNL d   1      49.634  45.134 -12.314  0.00  0.00     0.217 HD
ENDBRANCH   7  45
TORSDOF 9
ENDMDL
MODEL 4
REMARK VINA RESULT:    -8.734      2.067      2.958
REMARK INTER + INTRA:          -3.330
REMARK INTER:                 -12.298
REMARK INTRA:                   8.968
REMARK UNBOUND:                 8.468
REMARK  9 active torsions:
REMARK  status: ('A' for Active; 'I' for Inactive)
REMARK    1  A    between atoms: O_3  and  C_17 
REMARK    2  A    between atoms: O_4  and  C_18 
REMARK    3  A    between atoms: O_5  and  C_19 
REMARK    4  A    between atoms: O_7  and  C_32 
REMARK    5  A    between atoms: O_9  and  C_36 
REMARK    6  A    between atoms: O_10  and  C_40 
REMARK    7  A    between atoms: C_11  and  C_13 
REMARK    8  A    between atoms: C_15  and  C_20 
REMARK    9  A    between atoms: C_22  and  C_29 
ROOT
ATOM      1  O   UNL d   1      44.837  30.393  -1.617  0.00  0.00    -0.308 OA
ATOM      2  O   UNL d   1      44.602  30.197  -4.671  0.00  0.00    -0.287 OA
ATOM      3  C   UNL d   1      43.197  31.030  -1.573  0.00  0.00     0.045 A 
ATOM      4  C   UNL d   1      43.966  30.683  -2.109  0.00  0.00     0.107 A 
ATOM      5  C   UNL d   1      43.893  30.618  -3.105  0.00  0.00     0.082 A 
ATOM      6  C   UNL d   1      42.355  31.313  -2.032  0.00  0.00     0.082 A 
ATOM      7  C   UNL d   1      43.051  30.900  -3.564  0.00  0.00     0.085 A 
ATOM      8  C   UNL d   1      42.282  31.248  -3.027  0.00  0.00     0.075 A 
ATOM      9  C   UNL d   1      45.643  30.030  -2.169  0.00  0.00     0.090 A 
ATOM     10  C   UNL d   1      44.686  30.258  -3.676  0.00  0.00     0.190 A 
ATOM     11  C   UNL d   1      45.567  29.962  -3.206  0.00  0.00     0.094 A 
ENDROOT
BRANCH   3  12
ATOM     12  C   UNL d   1      43.270  31.096  -0.578  0.00  0.00     0.014 A 
ATOM     13  C   UNL d   1      43.190  30.273  -0.016  0.00  0.00     0.029 A 
ATOM     14  C   UNL d   1      43.263  30.338   0.979  0.00  0.00    -0.001 A 
ATOM     15  C   UNL d   1      43.417  31.226   1.412  0.00  0.00     0.017 A 
ATOM     16  C   UNL d   1      43.497  32.049   0.850  0.00  0.00     0.038 A 
ATOM     17  C   UNL d   1      43.424  31.984  -0.145  0.00  0.00     0.076 A 
BRANCH  14  18
ATOM     18  C   UNL d   1      43.182  29.515   1.542  0.00  0.00     0.090 A 
ATOM     19  O   UNL d   1      44.005  29.036   1.848  0.00  0.00    -0.309 OA
ATOM     20  C   UNL d   1      43.924  28.213   2.411  0.00  0.00     0.095 A 
ATOM     21  C   UNL d   1      43.021  27.869   2.666  0.00  0.00     0.081 A 
ATOM     22  C   UNL d   1      44.791  27.725   2.723  0.00  0.00     0.075 A 
ATOM     23  C   UNL d   1      42.198  28.347   2.359  0.00  0.00     0.190 A 
ATOM     24  C   UNL d   1      42.921  27.013   3.251  0.00  0.00     0.085 A 
ATOM     25  O   UNL d   1      41.295  28.003   2.615  0.00  0.00    -0.287 OA
ATOM     26  C   UNL d   1      42.279  29.170   1.797  0.00  0.00     0.094 A 
ATOM     27  C   UNL d   1      43.774  26.509   3.575  0.00  0.00     0.074 A 
ATOM     28  C   UNL d   1      44.715  26.867   3.309  0.00  0.00     0.071 A 
BRANCH  24  29
ATOM     29  O   UNL d   1      42.013  26.677   3.501  0.00  0.00    -0.360 OA
ATOM     30  H   UNL d   1      41.515  26.862   3.180  0.00  0.00     0.217 HD
ENDBRANCH  24  29
BRANCH  28  31
ATOM     31  O   UNL d   1      45.540  26.392   3.614  0.00  0.00    -0.361 OA
ATOM     32  H   UNL d   1      46.058  26.713   3.730  0.00  0.00     0.217 HD
ENDBRANCH  28  31
ENDBRANCH  14  18
BRANCH  17  33
ATOM     33  O   UNL d   1      43.505  32.807  -0.707  0.00  0.00    -0.360 OA
ATOM     34  H   UNL d   1      43.062  33.241  -0.687  0.00  0.00     0.217 HD
ENDBRANCH  17  33
ENDBRANCH   3  12
BRANCH   6  35
ATOM     35  O   UNL d   1      41.586  31.660  -1.496  0.00  0.00    -0.360 OA
ATOM     36  H   UNL d   1      41.023  31.702  -1.752  0.00  0.00     0.217 HD
ENDBRANCH   6  35
BRANCH   9  37
ATOM     37  C   UNL d   1      46.484  29.748  -1.706  0.00  0.00    -0.002 A 
ATOM     38  C   UNL d   1      46.470  28.974  -1.073  0.00  0.00     0.017 A 
ATOM     39  C   UNL d   1      47.310  28.692  -0.610  0.00  0.00     0.037 A 
ATOM     40  C   UNL d   1      48.163  29.185  -0.779  0.00  0.00     0.065 A 
ATOM     41  C   UNL d   1      48.177  29.959  -1.411  0.00  0.00     0.037 A 
ATOM     42  C   UNL d   1      47.336  30.241  -1.875  0.00  0.00     0.017 A 
BRANCH  40  43
ATOM     43  O   UNL d   1      49.004  28.903  -0.316  0.00  0.00    -0.361 OA
ATOM     44  H   UNL d   1      48.990  28.445   0.102  0.00  0.00     0.217 HD
ENDBRANCH  40  43
ENDBRANCH   9  37
BRANCH   7  45
ATOM     45  O   UNL d   1      42.978  30.835  -4.559  0.00  0.00    -0.360 OA
ATOM     46  H   UNL d   1      42.423  30.762  -4.825  0.00  0.00     0.217 HD
ENDBRANCH   7  45
TORSDOF 9
ENDMDL
MODEL 5
REMARK VINA RESULT:    -8.692      2.017      6.475
REMARK INTER + INTRA:          -3.273
REMARK INTER:                 -11.792
REMARK INTRA:                   8.519
REMARK UNBOUND:                 8.468
REMARK  9 active torsions:
REMARK  status: ('A' for Active; 'I' for Inactive)
REMARK    1  A    between atoms: O_3  and  C_17 
REMARK    2  A    between atoms: O_4  and  C_18 
REMARK    3  A    between atoms: O_5  and  C_19 
REMARK    4  A    between atoms: O_7  and  C_32 
REMARK    5  A    between atoms: O_9  and  C_36 
REMARK    6  A    between atoms: O_10  and  C_40 
REMARK    7  A    between atoms: C_11  and  C_13 
REMARK    8  A    between atoms: C_15  and  C_20 
REMARK    9  A    between atoms: C_22  and  C_29 
ROOT
ATOM      1  O   UNL d   1      44.093  29.930   1.179  0.00  0.00    -0.308 OA
ATOM      2  O   UNL d   1      43.903  27.525   3.077  0.00  0.00    -0.287 OA
ATOM      3  C   UNL d   1      45.286  29.040   0.239  0.00  0.00     0.045 A 
ATOM      4  C   UNL d   1      44.666  29.074   1.022  0.00  0.00     0.107 A 
ATOM      5  C   UNL d   1      44.601  28.292   1.643  0.00  0.00     0.082 A 
ATOM      6  C   UNL d   1      45.841  28.224   0.075  0.00  0.00     0.082 A 
ATOM      7  C   UNL d   1      45.156  27.477   1.480  0.00  0.00     0.085 A 
ATOM      8  C   UNL d   1      45.776  27.443   0.696  0.00  0.00     0.075 A 
ATOM      9  C   UNL d   1      43.445  29.972   1.993  0.00  0.00     0.090 A 
ATOM     10  C   UNL d   1      43.959  28.313   2.463  0.00  0.00     0.190 A 
ATOM     11  C   UNL d   1      43.378  29.158   2.640  0.00  0.00     0.094 A 
ENDROOT
BRANCH   3  12
ATOM     12  C   UNL d   1      45.351  29.821  -0.382  0.00  0.00     0.014 A 
ATOM     13  C   UNL d   1      44.729  29.894  -1.162  0.00  0.00     0.029 A 
ATOM     14  C   UNL d   1      44.794  30.675  -1.782  0.00  0.00    -0.001 A 
ATOM     15  C   UNL d   1      45.480  31.385  -1.623  0.00  0.00     0.017 A 
ATOM     16  C   UNL d   1      46.102  31.312  -0.843  0.00  0.00     0.038 A 
ATOM     17  C   UNL d   1      46.037  30.531  -0.222  0.00  0.00     0.076 A 
BRANCH  14  18
ATOM     18  C   UNL d   1      44.172  30.747  -2.562  0.00  0.00     0.090 A 
ATOM     19  O   UNL d   1      44.533  30.712  -3.494  0.00  0.00    -0.309 OA
ATOM     20  C   UNL d   1      43.911  30.785  -4.274  0.00  0.00     0.095 A 
ATOM     21  C   UNL d   1      42.928  30.892  -4.122  0.00  0.00     0.081 A 
ATOM     22  C   UNL d   1      44.302  30.747  -5.239  0.00  0.00     0.075 A 
ATOM     23  C   UNL d   1      42.568  30.927  -3.190  0.00  0.00     0.190 A 
ATOM     24  C   UNL d   1      42.268  30.968  -4.924  0.00  0.00     0.085 A 
ATOM     25  O   UNL d   1      41.585  31.034  -3.037  0.00  0.00    -0.287 OA
ATOM     26  C   UNL d   1      43.189  30.854  -2.410  0.00  0.00     0.094 A 
ATOM     27  C   UNL d   1      42.637  30.933  -5.898  0.00  0.00     0.074 A 
ATOM     28  C   UNL d   1      43.660  30.821  -6.057  0.00  0.00     0.071 A 
BRANCH  24  29
ATOM     29  O   UNL d   1      41.288  31.075  -4.760  0.00  0.00    -0.360 OA
ATOM     30  H   UNL d   1      40.879  30.868  -5.179  0.00  0.00     0.217 HD
ENDBRANCH  24  29
BRANCH  28  31
ATOM     31  O   UNL d   1      44.025  30.786  -6.987  0.00  0.00    -0.361 OA
ATOM     32  H   UNL d   1      43.947  30.276  -7.331  0.00  0.00     0.217 HD
ENDBRANCH  28  31
ENDBRANCH  14  18
BRANCH  17  33
ATOM     33  O   UNL d   1      46.659  30.459   0.558  0.00  0.00    -0.360 OA
ATOM     34  H   UNL d   1      46.860  29.902   0.743  0.00  0.00     0.217 HD
ENDBRANCH  17  33
ENDBRANCH   3  12
BRANCH   6  35
ATOM     35  O   UNL d   1      46.461  28.191  -0.708  0.00  0.00    -0.360 OA
ATOM     36  H   UNL d   1      47.070  28.274  -0.626  0.00  0.00     0.217 HD
ENDBRANCH   6  35
BRANCH   9  37
ATOM     37  C   UNL d   1      42.891  30.790   2.153  0.00  0.00    -0.002 A 
ATOM     38  C   UNL d   1      42.018  30.902   1.679  0.00  0.00     0.017 A 
ATOM     39  C   UNL d   1      41.464  31.719   1.838  0.00  0.00     0.037 A 
ATOM     40  C   UNL d   1      41.783  32.423   2.471  0.00  0.00     0.065 A 
ATOM     41  C   UNL d   1      42.656  32.311   2.946  0.00  0.00     0.037 A 
ATOM     42  C   UNL d   1      43.210  31.494   2.786  0.00  0.00     0.017 A 
BRANCH  40  43
ATOM     43  O   UNL d   1      41.229  33.241   2.631  0.00  0.00    -0.361 OA
ATOM     44  H   UNL d   1      41.039  33.585   2.151  0.00  0.00     0.217 HD
ENDBRANCH  40  43
ENDBRANCH   9  37
BRANCH   7  45
ATOM     45  O   UNL d   1      45.091  26.695   2.100  0.00  0.00    -0.360 OA
ATOM     46  H   UNL d   1      45.419  26.181   1.986  0.00  0.00     0.217 HD
ENDBRANCH   7  45
TORSDOF 9
ENDMDL
