MODEL 1
REMARK VINA RESULT:    -7.134      0.000      0.000
REMARK INTER + INTRA:          -6.957
REMARK INTER:                  -7.983
REMARK INTRA:                   1.026
REMARK UNBOUND:                 1.012
REMARK  3 active torsions:
REMARK  status: ('A' for Active; 'I' for Inactive)
REMARK    1  A    between atoms: O_2  and  C_10 
REMARK    2  A    between atoms: O_4  and  C_13 
REMARK    3  A    between atoms: C_7  and  C_9 
ROOT
ATOM      1  O   UNL d   1      46.500  44.759 -14.928  0.00  0.00    -0.309 OA
ATOM      2  O   UNL d   1      47.757  44.797 -12.204  0.00  0.00    -0.287 OA
ATOM      3  C   UNL d   1      47.829  45.167 -13.895  0.00  0.00     0.081 A 
ATOM      4  C   UNL d   1      47.410  45.154 -14.803  0.00  0.00     0.095 A 
ATOM      5  C   UNL d   1      46.009  44.376 -14.145  0.00  0.00     0.090 A 
ATOM      6  C   UNL d   1      47.338  44.784 -13.112  0.00  0.00     0.190 A 
ATOM      7  C   UNL d   1      48.775  45.575 -13.750  0.00  0.00     0.085 A 
ATOM      8  C   UNL d   1      46.428  44.389 -13.238  0.00  0.00     0.094 A 
ATOM      9  C   UNL d   1      47.908  45.549 -15.628  0.00  0.00     0.075 A 
ATOM     10  C   UNL d   1      48.857  45.962 -15.505  0.00  0.00     0.071 A 
ATOM     11  C   UNL d   1      49.293  45.976 -14.560  0.00  0.00     0.074 A 
ENDROOT
BRANCH   5  12
ATOM     12  C   UNL d   1      45.099  43.981 -14.271  0.00  0.00    -0.002 A 
ATOM     13  C   UNL d   1      44.998  43.083 -14.699  0.00  0.00     0.014 A 
ATOM     14  C   UNL d   1      44.088  42.687 -14.824  0.00  0.00     0.001 A 
ATOM     15  C   UNL d   1      43.279  43.190 -14.521  0.00  0.00     0.000 A 
ATOM     16  C   UNL d   1      43.379  44.088 -14.093  0.00  0.00     0.001 A 
ATOM     17  C   UNL d   1      44.289  44.484 -13.968  0.00  0.00     0.014 A 
ENDBRANCH   5  12
BRANCH   7  18
ATOM     18  O   UNL d   1      49.185  45.583 -12.837  0.00  0.00    -0.360 OA
ATOM     19  H   UNL d   1      48.860  45.378 -12.351  0.00  0.00     0.217 HD
ENDBRANCH   7  18
BRANCH  10  20
ATOM     20  O   UNL d   1      49.344  46.344 -16.291  0.00  0.00    -0.361 OA
ATOM     21  H   UNL d   1      49.449  45.992 -16.791  0.00  0.00     0.217 HD
ENDBRANCH  10  20
TORSDOF 3
ENDMDL
MODEL 2
REMARK VINA RESULT:    -6.980     18.486     19.876
REMARK INTER + INTRA:          -6.784
REMARK INTER:                  -7.831
REMARK INTRA:                   1.047
REMARK UNBOUND:                 1.012
REMARK  3 active torsions:
REMARK  status: ('A' for Active; 'I' for Inactive)
REMARK    1  A    between atoms: O_2  and  C_10 
REMARK    2  A    between atoms: O_4  and  C_13 
REMARK    3  A    between atoms: C_7  and  C_9 
ROOT
ATOM      1  O   UNL d   1      44.965  30.793   0.007  0.00  0.00    -0.309 OA
ATOM      2  O   UNL d   1      44.271  33.441  -1.220  0.00  0.00    -0.287 OA
ATOM      3  C   UNL d   1      43.942  32.188  -0.071  0.00  0.00     0.081 A 
ATOM      4  C   UNL d   1      44.173  31.305   0.339  0.00  0.00     0.095 A 
ATOM      5  C   UNL d   1      45.526  31.163  -0.733  0.00  0.00     0.090 A 
ATOM      6  C   UNL d   1      44.503  32.558  -0.811  0.00  0.00     0.190 A 
ATOM      7  C   UNL d   1      43.120  32.733   0.264  0.00  0.00     0.085 A 
ATOM      8  C   UNL d   1      45.295  32.046  -1.143  0.00  0.00     0.094 A 
ATOM      9  C   UNL d   1      43.599  30.907   1.111  0.00  0.00     0.075 A 
ATOM     10  C   UNL d   1      42.772  31.435   1.461  0.00  0.00     0.071 A 
ATOM     11  C   UNL d   1      42.531  32.354   1.035  0.00  0.00     0.074 A 
ENDROOT
BRANCH   5  12
ATOM     12  C   UNL d   1      46.318  30.650  -1.065  0.00  0.00    -0.002 A 
ATOM     13  C   UNL d   1      47.127  30.551  -0.485  0.00  0.00     0.014 A 
ATOM     14  C   UNL d   1      47.919  30.038  -0.817  0.00  0.00     0.001 A 
ATOM     15  C   UNL d   1      47.902  29.625  -1.727  0.00  0.00     0.000 A 
ATOM     16  C   UNL d   1      47.093  29.725  -2.307  0.00  0.00     0.001 A 
ATOM     17  C   UNL d   1      46.301  30.238  -1.975  0.00  0.00     0.014 A 
ENDBRANCH   5  12
BRANCH   7  18
ATOM     18  O   UNL d   1      42.898  33.614  -0.153  0.00  0.00    -0.360 OA
ATOM     19  H   UNL d   1      43.233  34.116  -0.012  0.00  0.00     0.217 HD
ENDBRANCH   7  18
BRANCH  10  20
ATOM     20  O   UNL d   1      42.214  31.061   2.202  0.00  0.00    -0.361 OA
ATOM     21  H   UNL d   1      41.837  31.434   2.525  0.00  0.00     0.217 HD
ENDBRANCH  10  20
TORSDOF 3
ENDMDL
MODEL 3
REMARK VINA RESULT:    -6.910     18.574     19.700
REMARK INTER + INTRA:          -6.706
REMARK INTER:                  -7.961
REMARK INTRA:                   1.255
REMARK UNBOUND:                 1.012
REMARK  3 active torsions:
REMARK  status: ('A' for Active; 'I' for Inactive)
REMARK    1  A    between atoms: O_2  and  C_10 
REMARK    2  A    between atoms: O_4  and  C_13 
REMARK    3  A    between atoms: C_7  and  C_9 
ROOT
ATOM      1  O   UNL d   1      45.239  30.842   0.158  0.00  0.00    -0.309 OA
ATOM      2  O   UNL d   1      45.199  31.447  -2.780  0.00  0.00    -0.287 OA
ATOM      3  C   UNL d   1      45.973  30.729  -1.407  0.00  0.00     0.081 A 
ATOM      4  C   UNL d   1      45.986  30.528  -0.428  0.00  0.00     0.095 A 
ATOM      5  C   UNL d   1      44.479  31.358  -0.236  0.00  0.00     0.090 A 
ATOM      6  C   UNL d   1      45.212  31.245  -1.801  0.00  0.00     0.190 A 
ATOM      7  C   UNL d   1      46.744  30.408  -2.029  0.00  0.00     0.085 A 
ATOM      8  C   UNL d   1      44.465  31.560  -1.215  0.00  0.00     0.094 A 
ATOM      9  C   UNL d   1      46.772  29.991  -0.002  0.00  0.00     0.075 A 
ATOM     10  C   UNL d   1      47.553  29.660  -0.606  0.00  0.00     0.071 A 
ATOM     11  C   UNL d   1      47.539  29.870  -1.626  0.00  0.00     0.074 A 
ENDROOT
BRANCH   5  12
ATOM     12  C   UNL d   1      43.731  31.673   0.350  0.00  0.00    -0.002 A 
ATOM     13  C   UNL d   1      43.395  31.089   1.089  0.00  0.00     0.014 A 
ATOM     14  C   UNL d   1      42.648  31.403   1.674  0.00  0.00     0.001 A 
ATOM     15  C   UNL d   1      42.237  32.302   1.521  0.00  0.00     0.000 A 
ATOM     16  C   UNL d   1      42.573  32.886   0.782  0.00  0.00     0.001 A 
ATOM     17  C   UNL d   1      43.320  32.571   0.196  0.00  0.00     0.014 A 
ENDBRANCH   5  12
BRANCH   7  18
ATOM     18  O   UNL d   1      46.720  30.615  -3.007  0.00  0.00    -0.360 OA
ATOM     19  H   UNL d   1      46.686  31.204  -3.198  0.00  0.00     0.217 HD
ENDBRANCH   7  18
BRANCH  10  20
ATOM     20  O   UNL d   1      48.312  29.144  -0.208  0.00  0.00    -0.361 OA
ATOM     21  H   UNL d   1      48.364  28.536  -0.317  0.00  0.00     0.217 HD
ENDBRANCH  10  20
TORSDOF 3
ENDMDL
MODEL 4
REMARK VINA RESULT:    -6.879     17.646     18.828
REMARK INTER + INTRA:          -6.671
REMARK INTER:                  -7.957
REMARK INTRA:                   1.286
REMARK UNBOUND:                 1.012
REMARK  3 active torsions:
REMARK  status: ('A' for Active; 'I' for Inactive)
REMARK    1  A    between atoms: O_2  and  C_10 
REMARK    2  A    between atoms: O_4  and  C_13 
REMARK    3  A    between atoms: C_7  and  C_9 
ROOT
ATOM      1  O   UNL d   1      46.282  30.218  -2.916  0.00  0.00    -0.309 OA
ATOM      2  O   UNL d   1      44.985  30.890  -0.296  0.00  0.00    -0.287 OA
ATOM      3  C   UNL d   1      46.367  30.355  -1.192  0.00  0.00     0.081 A 
ATOM      4  C   UNL d   1      46.799  30.131  -2.065  0.00  0.00     0.095 A 
ATOM      5  C   UNL d   1      45.331  30.529  -2.894  0.00  0.00     0.090 A 
ATOM      6  C   UNL d   1      45.417  30.666  -1.169  0.00  0.00     0.190 A 
ATOM      7  C   UNL d   1      46.894  30.270  -0.298  0.00  0.00     0.085 A 
ATOM      8  C   UNL d   1      44.899  30.753  -2.020  0.00  0.00     0.094 A 
ATOM      9  C   UNL d   1      47.788  29.806  -2.105  0.00  0.00     0.075 A 
ATOM     10  C   UNL d   1      48.334  29.713  -1.222  0.00  0.00     0.071 A 
ATOM     11  C   UNL d   1      47.884  29.946  -0.313  0.00  0.00     0.074 A 
ENDROOT
BRANCH   5  12
ATOM     12  C   UNL d   1      44.814  30.616  -3.745  0.00  0.00    -0.002 A 
ATOM     13  C   UNL d   1      45.276  30.901  -4.585  0.00  0.00     0.014 A 
ATOM     14  C   UNL d   1      44.758  30.988  -5.436  0.00  0.00     0.001 A 
ATOM     15  C   UNL d   1      43.778  30.790  -5.447  0.00  0.00     0.000 A 
ATOM     16  C   UNL d   1      43.315  30.506  -4.607  0.00  0.00     0.001 A 
ATOM     17  C   UNL d   1      43.833  30.419  -3.756  0.00  0.00     0.014 A 
ENDBRANCH   5  12
BRANCH   7  18
ATOM     18  O   UNL d   1      46.452  30.496   0.570  0.00  0.00    -0.360 OA
ATOM     19  H   UNL d   1      46.795  30.661   1.059  0.00  0.00     0.217 HD
ENDBRANCH   7  18
BRANCH  10  20
ATOM     20  O   UNL d   1      49.284  29.401  -1.249  0.00  0.00    -0.361 OA
ATOM     21  H   UNL d   1      49.539  29.232  -1.788  0.00  0.00     0.217 HD
ENDBRANCH  10  20
TORSDOF 3
ENDMDL
MODEL 5
REMARK VINA RESULT:    -6.493      1.597      4.502
REMARK INTER + INTRA:          -6.241
REMARK INTER:                  -7.631
REMARK INTRA:                   1.390
REMARK UNBOUND:                 1.012
REMARK  3 active torsions:
REMARK  status: ('A' for Active; 'I' for Inactive)
REMARK    1  A    between atoms: O_2  and  C_10 
REMARK    2  A    between atoms: O_4  and  C_13 
REMARK    3  A    between atoms: C_7  and  C_9 
ROOT
ATOM      1  O   UNL d   1      46.315  44.044 -15.752  0.00  0.00    -0.309 OA
ATOM      2  O   UNL d   1      46.000  45.564 -13.185  0.00  0.00    -0.287 OA
ATOM      3  C   UNL d   1      45.388  44.429 -14.341  0.00  0.00     0.081 A 
ATOM      4  C   UNL d   1      45.493  43.922 -15.197  0.00  0.00     0.095 A 
ATOM      5  C   UNL d   1      47.032  44.673 -15.452  0.00  0.00     0.090 A 
ATOM      6  C   UNL d   1      46.105  45.058 -14.041  0.00  0.00     0.190 A 
ATOM      7  C   UNL d   1      44.537  44.312 -13.752  0.00  0.00     0.085 A 
ATOM      8  C   UNL d   1      46.927  45.180 -14.596  0.00  0.00     0.094 A 
ATOM      9  C   UNL d   1      44.754  43.264 -15.523  0.00  0.00     0.075 A 
ATOM     10  C   UNL d   1      43.894  43.132 -14.949  0.00  0.00     0.071 A 
ATOM     11  C   UNL d   1      43.785  43.659 -14.058  0.00  0.00     0.074 A 
ENDROOT
BRANCH   5  12
ATOM     12  C   UNL d   1      47.855  44.795 -16.008  0.00  0.00    -0.002 A 
ATOM     13  C   UNL d   1      48.685  45.170 -15.596  0.00  0.00     0.014 A 
ATOM     14  C   UNL d   1      49.508  45.292 -16.152  0.00  0.00     0.001 A 
ATOM     15  C   UNL d   1      49.500  45.038 -17.119  0.00  0.00     0.000 A 
ATOM     16  C   UNL d   1      48.670  44.663 -17.530  0.00  0.00     0.001 A 
ATOM     17  C   UNL d   1      47.847  44.541 -16.975  0.00  0.00     0.014 A 
ENDBRANCH   5  12
BRANCH   7  18
ATOM     18  O   UNL d   1      44.442  44.824 -12.898  0.00  0.00    -0.360 OA
ATOM     19  H   UNL d   1      44.264  44.533 -12.381  0.00  0.00     0.217 HD
ENDBRANCH   7  18
BRANCH  10  20
ATOM     20  O   UNL d   1      43.179  42.502 -15.253  0.00  0.00    -0.361 OA
ATOM     21  H   UNL d   1      42.677  42.721 -15.543  0.00  0.00     0.217 HD
ENDBRANCH  10  20
TORSDOF 3
ENDMDL
