MODEL 1
REMARK VINA RESULT:    -7.350      0.000      0.000
REMARK INTER + INTRA:          -7.202
REMARK INTER:                  -8.224
REMARK INTRA:                   1.022
REMARK UNBOUND:                 1.006
REMARK  3 active torsions:
REMARK  status: ('A' for Active; 'I' for Inactive)
REMARK    1  A    between atoms: O_2  and  C_10 
REMARK    2  A    between atoms: O_4  and  C_13 
REMARK    3  A    between atoms: C_7  and  C_9 
ROOT
ATOM      1  O   UNL d   1      37.923  45.617  31.860  0.00  0.00    -0.309 OA
ATOM      2  O   UNL d   1      40.561  45.583  30.432  0.00  0.00    -0.287 OA
ATOM      3  C   UNL d   1      39.296  46.461  31.225  0.00  0.00     0.081 A 
ATOM      4  C   UNL d   1      38.416  46.472  31.701  0.00  0.00     0.095 A 
ATOM      5  C   UNL d   1      38.309  44.751  31.543  0.00  0.00     0.090 A 
ATOM      6  C   UNL d   1      39.682  45.594  30.908  0.00  0.00     0.190 A 
ATOM      7  C   UNL d   1      39.821  47.343  31.052  0.00  0.00     0.085 A 
ATOM      8  C   UNL d   1      39.188  44.739  31.067  0.00  0.00     0.094 A 
ATOM      9  C   UNL d   1      38.002  47.367  32.036  0.00  0.00     0.075 A 
ATOM     10  C   UNL d   1      38.510  48.262  31.874  0.00  0.00     0.071 A 
ATOM     11  C   UNL d   1      39.426  48.250  31.379  0.00  0.00     0.074 A 
ENDROOT
BRANCH   5  12
ATOM     12  C   UNL d   1      37.815  43.896  31.702  0.00  0.00    -0.002 A 
ATOM     13  C   UNL d   1      37.818  43.479  32.611  0.00  0.00     0.014 A 
ATOM     14  C   UNL d   1      37.324  42.624  32.770  0.00  0.00     0.001 A 
ATOM     15  C   UNL d   1      36.828  42.186  32.021  0.00  0.00     0.000 A 
ATOM     16  C   UNL d   1      36.825  42.603  31.112  0.00  0.00     0.001 A 
ATOM     17  C   UNL d   1      37.319  43.458  30.953  0.00  0.00     0.014 A 
ENDBRANCH   5  12
BRANCH   7  18
ATOM     18  O   UNL d   1      40.700  47.320  30.575  0.00  0.00    -0.360 OA
ATOM     19  H   UNL d   1      40.769  47.622  30.038  0.00  0.00     0.217 HD
ENDBRANCH   7  18
BRANCH  10  20
ATOM     20  O   UNL d   1      38.120  49.126  32.192  0.00  0.00    -0.361 OA
ATOM     21  H   UNL d   1      38.363  49.412  32.686  0.00  0.00     0.217 HD
ENDBRANCH  10  20
TORSDOF 3
ENDMDL
MODEL 2
REMARK VINA RESULT:    -7.189     15.231     17.826
REMARK INTER + INTRA:          -7.023
REMARK INTER:                  -8.119
REMARK INTRA:                   1.096
REMARK UNBOUND:                 1.006
REMARK  3 active torsions:
REMARK  status: ('A' for Active; 'I' for Inactive)
REMARK    1  A    between atoms: O_2  and  C_10 
REMARK    2  A    between atoms: O_4  and  C_13 
REMARK    3  A    between atoms: C_7  and  C_9 
ROOT
ATOM      1  O   UNL d   1      29.216  37.269  43.763  0.00  0.00    -0.309 OA
ATOM      2  O   UNL d   1      28.291  35.661  41.406  0.00  0.00    -0.287 OA
ATOM      3  C   UNL d   1      28.126  36.116  43.069  0.00  0.00     0.081 A 
ATOM      4  C   UNL d   1      28.435  36.652  43.855  0.00  0.00     0.095 A 
ATOM      5  C   UNL d   1      29.689  37.350  42.886  0.00  0.00     0.090 A 
ATOM      6  C   UNL d   1      28.600  36.197  42.192  0.00  0.00     0.190 A 
ATOM      7  C   UNL d   1      27.314  35.469  43.149  0.00  0.00     0.085 A 
ATOM      8  C   UNL d   1      29.381  36.814  42.100  0.00  0.00     0.094 A 
ATOM      9  C   UNL d   1      27.952  36.579  44.775  0.00  0.00     0.075 A 
ATOM     10  C   UNL d   1      27.137  35.938  44.878  0.00  0.00     0.071 A 
ATOM     11  C   UNL d   1      26.816  35.379  44.060  0.00  0.00     0.074 A 
ENDROOT
BRANCH   5  12
ATOM     12  C   UNL d   1      30.471  37.968  42.795  0.00  0.00    -0.002 A 
ATOM     13  C   UNL d   1      31.289  37.825  43.352  0.00  0.00     0.014 A 
ATOM     14  C   UNL d   1      32.070  38.442  43.260  0.00  0.00     0.001 A 
ATOM     15  C   UNL d   1      32.034  39.202  42.612  0.00  0.00     0.000 A 
ATOM     16  C   UNL d   1      31.215  39.345  42.055  0.00  0.00     0.001 A 
ATOM     17  C   UNL d   1      30.434  38.728  42.146  0.00  0.00     0.014 A 
ENDBRANCH   5  12
BRANCH   7  18
ATOM     18  O   UNL d   1      27.015  34.938  42.357  0.00  0.00    -0.360 OA
ATOM     19  H   UNL d   1      27.398  34.855  41.877  0.00  0.00     0.217 HD
ENDBRANCH   7  18
BRANCH  10  20
ATOM     20  O   UNL d   1      26.667  35.860  45.757  0.00  0.00    -0.361 OA
ATOM     21  H   UNL d   1      26.976  35.665  46.258  0.00  0.00     0.217 HD
ENDBRANCH  10  20
TORSDOF 3
ENDMDL
MODEL 3
REMARK VINA RESULT:    -6.811     16.708     18.379
REMARK INTER + INTRA:          -6.601
REMARK INTER:                  -7.632
REMARK INTRA:                   1.031
REMARK UNBOUND:                 1.006
REMARK  3 active torsions:
REMARK  status: ('A' for Active; 'I' for Inactive)
REMARK    1  A    between atoms: O_2  and  C_10 
REMARK    2  A    between atoms: O_4  and  C_13 
REMARK    3  A    between atoms: C_7  and  C_9 
ROOT
ATOM      1  O   UNL d   1      36.476  28.497  38.765  0.00  0.00    -0.309 OA
ATOM      2  O   UNL d   1      35.043  30.854  37.586  0.00  0.00    -0.287 OA
ATOM      3  C   UNL d   1      36.098  29.494  37.400  0.00  0.00     0.081 A 
ATOM      4  C   UNL d   1      36.575  28.708  37.793  0.00  0.00     0.095 A 
ATOM      5  C   UNL d   1      35.898  29.072  39.345  0.00  0.00     0.090 A 
ATOM      6  C   UNL d   1      35.521  30.069  37.979  0.00  0.00     0.190 A 
ATOM      7  C   UNL d   1      36.192  29.725  36.389  0.00  0.00     0.085 A 
ATOM      8  C   UNL d   1      35.421  29.858  38.952  0.00  0.00     0.094 A 
ATOM      9  C   UNL d   1      37.180  28.099  37.202  0.00  0.00     0.075 A 
ATOM     10  C   UNL d   1      37.289  28.312  36.188  0.00  0.00     0.071 A 
ATOM     11  C   UNL d   1      36.792  29.130  35.779  0.00  0.00     0.074 A 
ENDROOT
BRANCH   5  12
ATOM     12  C   UNL d   1      35.799  28.862  40.317  0.00  0.00    -0.002 A 
ATOM     13  C   UNL d   1      36.553  29.043  40.948  0.00  0.00     0.014 A 
ATOM     14  C   UNL d   1      36.453  28.833  41.920  0.00  0.00     0.001 A 
ATOM     15  C   UNL d   1      35.599  28.440  42.262  0.00  0.00     0.000 A 
ATOM     16  C   UNL d   1      34.845  28.259  41.631  0.00  0.00     0.001 A 
ATOM     17  C   UNL d   1      34.945  28.469  40.659  0.00  0.00     0.014 A 
ENDBRANCH   5  12
BRANCH   7  18
ATOM     18  O   UNL d   1      35.710  30.513  36.007  0.00  0.00    -0.360 OA
ATOM     19  H   UNL d   1      35.117  30.460  35.836  0.00  0.00     0.217 HD
ENDBRANCH   7  18
BRANCH  10  20
ATOM     20  O   UNL d   1      37.868  27.734  35.612  0.00  0.00    -0.361 OA
ATOM     21  H   UNL d   1      37.939  27.869  35.011  0.00  0.00     0.217 HD
ENDBRANCH  10  20
TORSDOF 3
ENDMDL
MODEL 4
REMARK VINA RESULT:    -6.733     16.534     18.753
REMARK INTER + INTRA:          -6.514
REMARK INTER:                  -7.513
REMARK INTRA:                   0.999
REMARK UNBOUND:                 1.006
REMARK  3 active torsions:
REMARK  status: ('A' for Active; 'I' for Inactive)
REMARK    1  A    between atoms: O_2  and  C_10 
REMARK    2  A    between atoms: O_4  and  C_13 
REMARK    3  A    between atoms: C_7  and  C_9 
ROOT
ATOM      1  O   UNL d   1      35.994  29.060  38.690  0.00  0.00    -0.309 OA
ATOM      2  O   UNL d   1      37.634  26.741  37.726  0.00  0.00    -0.287 OA
ATOM      3  C   UNL d   1      36.853  28.256  37.419  0.00  0.00     0.081 A 
ATOM      4  C   UNL d   1      36.306  29.029  37.740  0.00  0.00     0.095 A 
ATOM      5  C   UNL d   1      36.229  28.318  39.318  0.00  0.00     0.090 A 
ATOM      6  C   UNL d   1      37.087  27.514  38.047  0.00  0.00     0.190 A 
ATOM      7  C   UNL d   1      37.185  28.210  36.433  0.00  0.00     0.085 A 
ATOM      8  C   UNL d   1      36.775  27.545  38.997  0.00  0.00     0.094 A 
ATOM      9  C   UNL d   1      36.053  29.809  37.098  0.00  0.00     0.075 A 
ATOM     10  C   UNL d   1      36.375  29.784  36.108  0.00  0.00     0.071 A 
ATOM     11  C   UNL d   1      36.944  28.979  35.773  0.00  0.00     0.074 A 
ENDROOT
BRANCH   5  12
ATOM     12  C   UNL d   1      35.917  28.349  40.268  0.00  0.00    -0.002 A 
ATOM     13  C   UNL d   1      36.498  28.757  40.972  0.00  0.00     0.014 A 
ATOM     14  C   UNL d   1      36.186  28.789  41.921  0.00  0.00     0.001 A 
ATOM     15  C   UNL d   1      35.292  28.412  42.167  0.00  0.00     0.000 A 
ATOM     16  C   UNL d   1      34.711  28.004  41.462  0.00  0.00     0.001 A 
ATOM     17  C   UNL d   1      35.023  27.973  40.513  0.00  0.00     0.014 A 
ENDBRANCH   5  12
BRANCH   7  18
ATOM     18  O   UNL d   1      37.731  27.432  36.122  0.00  0.00    -0.360 OA
ATOM     19  H   UNL d   1      38.025  27.075  36.535  0.00  0.00     0.217 HD
ENDBRANCH   7  18
BRANCH  10  20
ATOM     20  O   UNL d   1      36.138  30.528  35.483  0.00  0.00    -0.361 OA
ATOM     21  H   UNL d   1      35.781  30.995  35.679  0.00  0.00     0.217 HD
ENDBRANCH  10  20
TORSDOF 3
ENDMDL
MODEL 5
REMARK VINA RESULT:    -6.670     17.044     18.960
REMARK INTER + INTRA:          -6.443
REMARK INTER:                  -7.448
REMARK INTRA:                   1.004
REMARK UNBOUND:                 1.006
REMARK  3 active torsions:
REMARK  status: ('A' for Active; 'I' for Inactive)
REMARK    1  A    between atoms: O_2  and  C_10 
REMARK    2  A    between atoms: O_4  and  C_13 
REMARK    3  A    between atoms: C_7  and  C_9 
ROOT
ATOM      1  O   UNL d   1      35.597  28.428  38.689  0.00  0.00    -0.309 OA
ATOM      2  O   UNL d   1      37.455  29.715  40.662  0.00  0.00    -0.287 OA
ATOM      3  C   UNL d   1      36.039  28.775  40.327  0.00  0.00     0.081 A 
ATOM      4  C   UNL d   1      35.420  28.346  39.669  0.00  0.00     0.095 A 
ATOM      5  C   UNL d   1      36.393  28.939  38.366  0.00  0.00     0.090 A 
ATOM      6  C   UNL d   1      36.835  29.286  40.004  0.00  0.00     0.190 A 
ATOM      7  C   UNL d   1      35.867  28.698  41.351  0.00  0.00     0.085 A 
ATOM      8  C   UNL d   1      37.013  29.368  39.023  0.00  0.00     0.094 A 
ATOM      9  C   UNL d   1      34.586  27.810  39.990  0.00  0.00     0.075 A 
ATOM     10  C   UNL d   1      34.395  27.721  41.010  0.00  0.00     0.071 A 
ATOM     11  C   UNL d   1      35.039  28.167  41.695  0.00  0.00     0.074 A 
ENDROOT
BRANCH   5  12
ATOM     12  C   UNL d   1      36.570  29.022  37.385  0.00  0.00    -0.002 A 
ATOM     13  C   UNL d   1      36.109  29.731  36.851  0.00  0.00     0.014 A 
ATOM     14  C   UNL d   1      36.287  29.813  35.870  0.00  0.00     0.001 A 
ATOM     15  C   UNL d   1      36.925  29.186  35.423  0.00  0.00     0.000 A 
ATOM     16  C   UNL d   1      37.386  28.477  35.957  0.00  0.00     0.001 A 
ATOM     17  C   UNL d   1      37.209  28.395  36.938  0.00  0.00     0.014 A 
ENDBRANCH   5  12
BRANCH   7  18
ATOM     18  O   UNL d   1      36.493  29.130  42.000  0.00  0.00    -0.360 OA
ATOM     19  H   UNL d   1      36.339  29.172  42.598  0.00  0.00     0.217 HD
ENDBRANCH   7  18
BRANCH  10  20
ATOM     20  O   UNL d   1      33.597  27.208  41.329  0.00  0.00    -0.361 OA
ATOM     21  H   UNL d   1      33.672  26.715  41.697  0.00  0.00     0.217 HD
ENDBRANCH  10  20
TORSDOF 3
ENDMDL
