MODEL 1
REMARK VINA RESULT:    -9.825      0.000      0.000
REMARK INTER + INTRA:          -9.899
REMARK INTER:                 -11.861
REMARK INTRA:                   1.963
REMARK UNBOUND:                 1.937
REMARK  5 active torsions:
REMARK  status: ('A' for Active; 'I' for Inactive)
REMARK    1  A    between atoms: O_2  and  C_13 
REMARK    2  A    between atoms: O_3  and  C_19 
REMARK    3  A    between atoms: O_5  and  C_17 
REMARK    4  A    between atoms: O_6  and  C_21 
REMARK    5  A    between atoms: C_8  and  C_10 
ROOT
ATOM      1  O   UNL d   1      -3.088   2.152  10.740  0.00  0.00    -0.309 OA
ATOM      2  O   UNL d   1      -1.196   3.046  12.890  0.00  0.00    -0.287 OA
ATOM      3  C   UNL d   1      -2.814   2.813  12.317  0.00  0.00     0.081 A 
ATOM      4  C   UNL d   1      -2.101   2.087  10.596  0.00  0.00     0.090 A 
ATOM      5  C   UNL d   1      -3.445   2.515  11.601  0.00  0.00     0.095 A 
ATOM      6  C   UNL d   1      -1.827   2.748  12.173  0.00  0.00     0.190 A 
ATOM      7  C   UNL d   1      -1.470   2.385  11.312  0.00  0.00     0.094 A 
ATOM      8  C   UNL d   1      -3.171   3.193  13.218  0.00  0.00     0.085 A 
ATOM      9  C   UNL d   1      -4.476   2.577  11.736  0.00  0.00     0.075 A 
ATOM     10  C   UNL d   1      -4.855   2.954  12.630  0.00  0.00     0.071 A 
ATOM     11  C   UNL d   1      -4.199   3.264  13.376  0.00  0.00     0.074 A 
ENDROOT
BRANCH   4  12
ATOM     12  C   UNL d   1      -1.744   1.724   9.735  0.00  0.00     0.001 A 
ATOM     13  C   UNL d   1      -1.217   2.314   9.123  0.00  0.00     0.054 A 
ATOM     14  C   UNL d   1      -0.860   1.951   8.263  0.00  0.00     0.102 A 
ATOM     15  C   UNL d   1      -1.030   0.997   8.014  0.00  0.00     0.099 A 
ATOM     16  C   UNL d   1      -1.557   0.407   8.625  0.00  0.00     0.040 A 
ATOM     17  C   UNL d   1      -1.914   0.770   9.486  0.00  0.00     0.017 A 
BRANCH  14  18
ATOM     18  O   UNL d   1      -0.334   2.541   7.651  0.00  0.00    -0.353 OA
ATOM     19  C   UNL d   1       0.348   3.169   8.027  0.00  0.00     0.210 C 
ENDBRANCH  14  18
BRANCH  15  20
ATOM     20  O   UNL d   1      -0.673   0.634   7.153  0.00  0.00    -0.358 OA
ATOM     21  H   UNL d   1      -0.189   0.908   6.878  0.00  0.00     0.217 HD
ENDBRANCH  15  20
ENDBRANCH   4  12
BRANCH   8  22
ATOM     22  O   UNL d   1      -2.531   3.488  13.928  0.00  0.00    -0.360 OA
ATOM     23  H   UNL d   1      -2.746   3.719  14.462  0.00  0.00     0.217 HD
ENDBRANCH   8  22
BRANCH  10  24
ATOM     24  O   UNL d   1      -5.843   3.017  12.770  0.00  0.00    -0.361 OA
ATOM     25  H   UNL d   1      -6.175   2.504  12.871  0.00  0.00     0.217 HD
ENDBRANCH  10  24
TORSDOF 5
ENDMDL
MODEL 2
REMARK VINA RESULT:    -9.676      1.469      5.143
REMARK INTER + INTRA:          -9.719
REMARK INTER:                 -11.539
REMARK INTRA:                   1.820
REMARK UNBOUND:                 1.937
REMARK  5 active torsions:
REMARK  status: ('A' for Active; 'I' for Inactive)
REMARK    1  A    between atoms: O_2  and  C_13 
REMARK    2  A    between atoms: O_3  and  C_19 
REMARK    3  A    between atoms: O_5  and  C_17 
REMARK    4  A    between atoms: O_6  and  C_21 
REMARK    5  A    between atoms: C_8  and  C_10 
ROOT
ATOM      1  O   UNL d   1      -2.793   1.424  10.473  0.00  0.00    -0.309 OA
ATOM      2  O   UNL d   1      -1.746   4.205  10.063  0.00  0.00    -0.287 OA
ATOM      3  C   UNL d   1      -1.832   2.547   9.570  0.00  0.00     0.081 A 
ATOM      4  C   UNL d   1      -3.056   2.155  11.103  0.00  0.00     0.090 A 
ATOM      5  C   UNL d   1      -2.181   1.620   9.707  0.00  0.00     0.095 A 
ATOM      6  C   UNL d   1      -2.095   3.278  10.200  0.00  0.00     0.190 A 
ATOM      7  C   UNL d   1      -2.707   3.082  10.966  0.00  0.00     0.094 A 
ATOM      8  C   UNL d   1      -1.194   2.766   8.777  0.00  0.00     0.085 A 
ATOM      9  C   UNL d   1      -1.916   0.848   9.059  0.00  0.00     0.075 A 
ATOM     10  C   UNL d   1      -1.280   1.045   8.259  0.00  0.00     0.071 A 
ATOM     11  C   UNL d   1      -0.916   2.010   8.117  0.00  0.00     0.074 A 
ENDROOT
BRANCH   4  12
ATOM     12  C   UNL d   1      -3.668   1.959  11.869  0.00  0.00     0.001 A 
ATOM     13  C   UNL d   1      -4.651   2.112  11.775  0.00  0.00     0.054 A 
ATOM     14  C   UNL d   1      -5.263   1.916  12.542  0.00  0.00     0.102 A 
ATOM     15  C   UNL d   1      -4.891   1.567  13.402  0.00  0.00     0.099 A 
ATOM     16  C   UNL d   1      -3.907   1.414  13.495  0.00  0.00     0.040 A 
ATOM     17  C   UNL d   1      -3.296   1.610  12.729  0.00  0.00     0.017 A 
BRANCH  14  18
ATOM     18  O   UNL d   1      -6.247   2.069  12.448  0.00  0.00    -0.353 OA
ATOM     19  C   UNL d   1      -6.629   2.342  11.565  0.00  0.00     0.210 C 
ENDBRANCH  14  18
BRANCH  15  20
ATOM     20  O   UNL d   1      -5.503   1.371  14.168  0.00  0.00    -0.358 OA
ATOM     21  H   UNL d   1      -5.898   0.894  14.135  0.00  0.00     0.217 HD
ENDBRANCH  15  20
ENDBRANCH   4  12
BRANCH   8  22
ATOM     22  O   UNL d   1      -0.851   3.697   8.650  0.00  0.00    -0.360 OA
ATOM     23  H   UNL d   1      -1.215   4.129   8.395  0.00  0.00     0.217 HD
ENDBRANCH   8  22
BRANCH  10  24
ATOM     24  O   UNL d   1      -1.019   0.311   7.631  0.00  0.00    -0.361 OA
ATOM     25  H   UNL d   1      -1.373  -0.196   7.584  0.00  0.00     0.217 HD
ENDBRANCH  10  24
TORSDOF 5
ENDMDL
MODEL 3
REMARK VINA RESULT:    -9.075      1.213      5.285
REMARK INTER + INTRA:          -8.995
REMARK INTER:                 -11.039
REMARK INTRA:                   2.044
REMARK UNBOUND:                 1.937
REMARK  5 active torsions:
REMARK  status: ('A' for Active; 'I' for Inactive)
REMARK    1  A    between atoms: O_2  and  C_13 
REMARK    2  A    between atoms: O_3  and  C_19 
REMARK    3  A    between atoms: O_5  and  C_17 
REMARK    4  A    between atoms: O_6  and  C_21 
REMARK    5  A    between atoms: C_8  and  C_10 
ROOT
ATOM      1  O   UNL d   1      -1.843   2.501  10.448  0.00  0.00    -0.309 OA
ATOM      2  O   UNL d   1      -1.914  -0.069   8.902  0.00  0.00    -0.287 OA
ATOM      3  C   UNL d   1      -1.376   1.569   9.064  0.00  0.00     0.081 A 
ATOM      4  C   UNL d   1      -2.357   1.720  10.801  0.00  0.00     0.090 A 
ATOM      5  C   UNL d   1      -1.352   2.426   9.580  0.00  0.00     0.095 A 
ATOM      6  C   UNL d   1      -1.890   0.787   9.417  0.00  0.00     0.190 A 
ATOM      7  C   UNL d   1      -2.381   0.863  10.285  0.00  0.00     0.094 A 
ATOM      8  C   UNL d   1      -0.869   1.476   8.159  0.00  0.00     0.085 A 
ATOM      9  C   UNL d   1      -0.820   3.249   9.225  0.00  0.00     0.075 A 
ATOM     10  C   UNL d   1      -0.307   3.178   8.322  0.00  0.00     0.071 A 
ATOM     11  C   UNL d   1      -0.331   2.286   7.785  0.00  0.00     0.074 A 
ENDROOT
BRANCH   4  12
ATOM     12  C   UNL d   1      -2.848   1.795  11.669  0.00  0.00     0.001 A 
ATOM     13  C   UNL d   1      -3.840   1.669  11.695  0.00  0.00     0.054 A 
ATOM     14  C   UNL d   1      -4.330   1.745  12.563  0.00  0.00     0.102 A 
ATOM     15  C   UNL d   1      -3.829   1.945  13.405  0.00  0.00     0.099 A 
ATOM     16  C   UNL d   1      -2.838   2.071  13.378  0.00  0.00     0.040 A 
ATOM     17  C   UNL d   1      -2.347   1.996  12.510  0.00  0.00     0.017 A 
BRANCH  14  18
ATOM     18  O   UNL d   1      -5.322   1.619  12.589  0.00  0.00    -0.353 OA
ATOM     19  C   UNL d   1      -5.907   2.123  11.954  0.00  0.00     0.210 C 
ENDBRANCH  14  18
BRANCH  15  20
ATOM     20  O   UNL d   1      -4.320   2.021  14.273  0.00  0.00    -0.358 OA
ATOM     21  H   UNL d   1      -4.918   2.186  14.278  0.00  0.00     0.217 HD
ENDBRANCH  15  20
ENDBRANCH   4  12
BRANCH   8  22
ATOM     22  O   UNL d   1      -0.900   0.614   7.653  0.00  0.00    -0.360 OA
ATOM     23  H   UNL d   1      -1.200   0.584   7.111  0.00  0.00     0.217 HD
ENDBRANCH   8  22
BRANCH  10  24
ATOM     24  O   UNL d   1       0.207   3.962   7.972  0.00  0.00    -0.361 OA
ATOM     25  H   UNL d   1      -0.070   4.370   7.597  0.00  0.00     0.217 HD
ENDBRANCH  10  24
TORSDOF 5
ENDMDL
MODEL 4
REMARK VINA RESULT:    -8.848      2.500      4.025
REMARK INTER + INTRA:          -8.722
REMARK INTER:                 -10.675
REMARK INTRA:                   1.953
REMARK UNBOUND:                 1.937
REMARK  5 active torsions:
REMARK  status: ('A' for Active; 'I' for Inactive)
REMARK    1  A    between atoms: O_2  and  C_13 
REMARK    2  A    between atoms: O_3  and  C_19 
REMARK    3  A    between atoms: O_5  and  C_17 
REMARK    4  A    between atoms: O_6  and  C_21 
REMARK    5  A    between atoms: C_8  and  C_10 
ROOT
ATOM      1  O   UNL d   1      -5.572   2.460  11.809  0.00  0.00    -0.309 OA
ATOM      2  O   UNL d   1      -5.133   1.628  14.658  0.00  0.00    -0.287 OA
ATOM      3  C   UNL d   1      -6.167   1.753  13.274  0.00  0.00     0.081 A 
ATOM      4  C   UNL d   1      -4.685   2.613  12.244  0.00  0.00     0.090 A 
ATOM      5  C   UNL d   1      -6.314   2.030  12.324  0.00  0.00     0.095 A 
ATOM      6  C   UNL d   1      -5.280   1.906  13.708  0.00  0.00     0.190 A 
ATOM      7  C   UNL d   1      -4.538   2.336  13.193  0.00  0.00     0.094 A 
ATOM      8  C   UNL d   1      -6.930   1.303  13.823  0.00  0.00     0.085 A 
ATOM      9  C   UNL d   1      -7.233   1.877  11.858  0.00  0.00     0.075 A 
ATOM     10  C   UNL d   1      -8.009   1.429  12.388  0.00  0.00     0.071 A 
ATOM     11  C   UNL d   1      -7.857   1.141  13.377  0.00  0.00     0.074 A 
ENDROOT
BRANCH   4  12
ATOM     12  C   UNL d   1      -3.944   3.044  11.728  0.00  0.00     0.001 A 
ATOM     13  C   UNL d   1      -3.500   3.866  12.084  0.00  0.00     0.054 A 
ATOM     14  C   UNL d   1      -2.759   4.297  11.568  0.00  0.00     0.102 A 
ATOM     15  C   UNL d   1      -2.461   3.904  10.698  0.00  0.00     0.099 A 
ATOM     16  C   UNL d   1      -2.905   3.081  10.343  0.00  0.00     0.040 A 
ATOM     17  C   UNL d   1      -3.646   2.651  10.858  0.00  0.00     0.017 A 
BRANCH  14  18
ATOM     18  O   UNL d   1      -2.315   5.119  11.924  0.00  0.00    -0.353 OA
ATOM     19  C   UNL d   1      -2.489   5.416  12.862  0.00  0.00     0.210 C 
ENDBRANCH  14  18
BRANCH  15  20
ATOM     20  O   UNL d   1      -1.720   4.335  10.183  0.00  0.00    -0.358 OA
ATOM     21  H   UNL d   1      -1.828   4.563   9.617  0.00  0.00     0.217 HD
ENDBRANCH  15  20
ENDBRANCH   4  12
BRANCH   8  22
ATOM     22  O   UNL d   1      -6.772   1.030  14.772  0.00  0.00    -0.360 OA
ATOM     23  H   UNL d   1      -7.082   1.310  15.230  0.00  0.00     0.217 HD
ENDBRANCH   8  22
BRANCH  10  24
ATOM     24  O   UNL d   1      -8.896   1.278  11.950  0.00  0.00    -0.361 OA
ATOM     25  H   UNL d   1      -9.389   1.609  12.127  0.00  0.00     0.217 HD
ENDBRANCH  10  24
TORSDOF 5
ENDMDL
MODEL 5
REMARK VINA RESULT:    -8.720      3.131      5.703
REMARK INTER + INTRA:          -8.567
REMARK INTER:                 -10.430
REMARK INTRA:                   1.863
REMARK UNBOUND:                 1.937
REMARK  5 active torsions:
REMARK  status: ('A' for Active; 'I' for Inactive)
REMARK    1  A    between atoms: O_2  and  C_13 
REMARK    2  A    between atoms: O_3  and  C_19 
REMARK    3  A    between atoms: O_5  and  C_17 
REMARK    4  A    between atoms: O_6  and  C_21 
REMARK    5  A    between atoms: C_8  and  C_10 
ROOT
ATOM      1  O   UNL d   1      -4.939   3.012  13.174  0.00  0.00    -0.309 OA
ATOM      2  O   UNL d   1      -3.886   3.249  10.375  0.00  0.00    -0.287 OA
ATOM      3  C   UNL d   1      -3.774   3.642  12.058  0.00  0.00     0.081 A 
ATOM      4  C   UNL d   1      -5.403   2.541  12.423  0.00  0.00     0.090 A 
ATOM      5  C   UNL d   1      -4.125   3.563  12.991  0.00  0.00     0.095 A 
ATOM      6  C   UNL d   1      -4.237   3.170  11.308  0.00  0.00     0.190 A 
ATOM      7  C   UNL d   1      -5.052   2.620  11.490  0.00  0.00     0.094 A 
ATOM      8  C   UNL d   1      -2.926   4.212  11.853  0.00  0.00     0.085 A 
ATOM      9  C   UNL d   1      -3.653   4.048  13.783  0.00  0.00     0.075 A 
ATOM     10  C   UNL d   1      -2.804   4.624  13.600  0.00  0.00     0.071 A 
ATOM     11  C   UNL d   1      -2.439   4.706  12.629  0.00  0.00     0.074 A 
ENDROOT
BRANCH   4  12
ATOM     12  C   UNL d   1      -6.217   1.990  12.606  0.00  0.00     0.001 A 
ATOM     13  C   UNL d   1      -7.127   2.394  12.505  0.00  0.00     0.054 A 
ATOM     14  C   UNL d   1      -7.941   1.844  12.688  0.00  0.00     0.102 A 
ATOM     15  C   UNL d   1      -7.846   0.889  12.972  0.00  0.00     0.099 A 
ATOM     16  C   UNL d   1      -6.937   0.485  13.072  0.00  0.00     0.040 A 
ATOM     17  C   UNL d   1      -6.122   1.036  12.889  0.00  0.00     0.017 A 
BRANCH  14  18
ATOM     18  O   UNL d   1      -8.850   2.247  12.588  0.00  0.00    -0.353 OA
ATOM     19  C   UNL d   1      -8.989   3.220  12.773  0.00  0.00     0.210 C 
ENDBRANCH  14  18
BRANCH  15  20
ATOM     20  O   UNL d   1      -8.661   0.339  13.154  0.00  0.00    -0.358 OA
ATOM     21  H   UNL d   1      -8.828  -0.108  12.758  0.00  0.00     0.217 HD
ENDBRANCH  15  20
ENDBRANCH   4  12
BRANCH   8  22
ATOM     22  O   UNL d   1      -2.584   4.284  10.916  0.00  0.00    -0.360 OA
ATOM     23  H   UNL d   1      -1.974   4.285  10.809  0.00  0.00     0.217 HD
ENDBRANCH   8  22
BRANCH  10  24
ATOM     24  O   UNL d   1      -2.344   5.094  14.354  0.00  0.00    -0.361 OA
ATOM     25  H   UNL d   1      -2.458   5.694  14.460  0.00  0.00     0.217 HD
ENDBRANCH  10  24
TORSDOF 5
ENDMDL
