MODEL 1
REMARK VINA RESULT:   -10.036      0.000      0.000
REMARK INTER + INTRA:         -10.192
REMARK INTER:                 -11.191
REMARK INTRA:                   0.999
REMARK UNBOUND:                 1.018
REMARK  3 active torsions:
REMARK  status: ('A' for Active; 'I' for Inactive)
REMARK    1  A    between atoms: O_2  and  C_10 
REMARK    2  A    between atoms: O_4  and  C_13 
REMARK    3  A    between atoms: C_7  and  C_9 
ROOT
ATOM      1  O   UNL d   1      -3.162   2.093  10.486  0.00  0.00    -0.309 OA
ATOM      2  O   UNL d   1      -1.173   2.792  12.620  0.00  0.00    -0.287 OA
ATOM      3  C   UNL d   1      -2.815   2.672  12.081  0.00  0.00     0.081 A 
ATOM      4  C   UNL d   1      -3.477   2.438  11.369  0.00  0.00     0.095 A 
ATOM      5  C   UNL d   1      -2.183   1.980  10.314  0.00  0.00     0.090 A 
ATOM      6  C   UNL d   1      -1.836   2.559  11.909  0.00  0.00     0.190 A 
ATOM      7  C   UNL d   1      -3.129   3.032  13.006  0.00  0.00     0.085 A 
ATOM      8  C   UNL d   1      -1.520   2.214  11.025  0.00  0.00     0.094 A 
ATOM      9  C   UNL d   1      -4.500   2.550  11.534  0.00  0.00     0.075 A 
ATOM     10  C   UNL d   1      -4.837   2.910  12.452  0.00  0.00     0.071 A 
ATOM     11  C   UNL d   1      -4.147   3.152  13.192  0.00  0.00     0.074 A 
ENDROOT
BRANCH   5  12
ATOM     12  C   UNL d   1      -1.867   1.635   9.430  0.00  0.00    -0.002 A 
ATOM     13  C   UNL d   1      -1.770   0.650   9.284  0.00  0.00     0.014 A 
ATOM     14  C   UNL d   1      -1.454   0.305   8.400  0.00  0.00     0.001 A 
ATOM     15  C   UNL d   1      -1.236   0.944   7.663  0.00  0.00     0.000 A 
ATOM     16  C   UNL d   1      -1.333   1.928   7.809  0.00  0.00     0.001 A 
ATOM     17  C   UNL d   1      -1.648   2.274   8.693  0.00  0.00     0.014 A 
ENDBRANCH   5  12
BRANCH   7  18
ATOM     18  O   UNL d   1      -2.457   3.262  13.710  0.00  0.00    -0.360 OA
ATOM     19  H   UNL d   1      -1.894   3.462  13.547  0.00  0.00     0.217 HD
ENDBRANCH   7  18
BRANCH  10  20
ATOM     20  O   UNL d   1      -5.816   3.020  12.620  0.00  0.00    -0.361 OA
ATOM     21  H   UNL d   1      -6.187   3.224  12.166  0.00  0.00     0.217 HD
ENDBRANCH  10  20
TORSDOF 3
ENDMDL
MODEL 2
REMARK VINA RESULT:    -9.859      1.691      4.476
REMARK INTER + INTRA:          -9.994
REMARK INTER:                 -10.992
REMARK INTRA:                   0.999
REMARK UNBOUND:                 1.018
REMARK  3 active torsions:
REMARK  status: ('A' for Active; 'I' for Inactive)
REMARK    1  A    between atoms: O_2  and  C_10 
REMARK    2  A    between atoms: O_4  and  C_13 
REMARK    3  A    between atoms: C_7  and  C_9 
ROOT
ATOM      1  O   UNL d   1      -2.785   1.407  10.499  0.00  0.00    -0.309 OA
ATOM      2  O   UNL d   1      -1.764   4.203  10.121  0.00  0.00    -0.287 OA
ATOM      3  C   UNL d   1      -1.841   2.551   9.605  0.00  0.00     0.081 A 
ATOM      4  C   UNL d   1      -2.181   1.619   9.731  0.00  0.00     0.095 A 
ATOM      5  C   UNL d   1      -3.049   2.127  11.141  0.00  0.00     0.090 A 
ATOM      6  C   UNL d   1      -2.105   3.271  10.247  0.00  0.00     0.190 A 
ATOM      7  C   UNL d   1      -1.211   2.786   8.810  0.00  0.00     0.085 A 
ATOM      8  C   UNL d   1      -2.709   3.059  11.015  0.00  0.00     0.094 A 
ATOM      9  C   UNL d   1      -1.915   0.859   9.071  0.00  0.00     0.075 A 
ATOM     10  C   UNL d   1      -1.286   1.072   8.268  0.00  0.00     0.071 A 
ATOM     11  C   UNL d   1      -0.932   2.042   8.137  0.00  0.00     0.074 A 
ENDROOT
BRANCH   5  12
ATOM     12  C   UNL d   1      -3.653   1.915  11.909  0.00  0.00    -0.002 A 
ATOM     13  C   UNL d   1      -3.267   1.611  12.780  0.00  0.00     0.014 A 
ATOM     14  C   UNL d   1      -3.871   1.399  13.548  0.00  0.00     0.001 A 
ATOM     15  C   UNL d   1      -4.862   1.491  13.446  0.00  0.00     0.000 A 
ATOM     16  C   UNL d   1      -5.248   1.796  12.575  0.00  0.00     0.001 A 
ATOM     17  C   UNL d   1      -4.644   2.008  11.807  0.00  0.00     0.014 A 
ENDBRANCH   5  12
BRANCH   7  18
ATOM     18  O   UNL d   1      -0.877   3.722   8.693  0.00  0.00    -0.360 OA
ATOM     19  H   UNL d   1      -1.078   4.066   8.219  0.00  0.00     0.217 HD
ENDBRANCH   7  18
BRANCH  10  20
ATOM     20  O   UNL d   1      -1.025   0.349   7.628  0.00  0.00    -0.361 OA
ATOM     21  H   UNL d   1      -0.957  -0.233   7.830  0.00  0.00     0.217 HD
ENDBRANCH  10  20
TORSDOF 3
ENDMDL
MODEL 3
REMARK VINA RESULT:    -9.310     11.859     13.131
REMARK INTER + INTRA:          -9.380
REMARK INTER:                 -10.387
REMARK INTRA:                   1.006
REMARK UNBOUND:                 1.018
REMARK  3 active torsions:
REMARK  status: ('A' for Active; 'I' for Inactive)
REMARK    1  A    between atoms: O_2  and  C_10 
REMARK    2  A    between atoms: O_4  and  C_13 
REMARK    3  A    between atoms: C_7  and  C_9 
ROOT
ATOM      1  O   UNL d   1      -4.903 -11.142   9.172  0.00  0.00    -0.309 OA
ATOM      2  O   UNL d   1      -4.731  -8.506  10.593  0.00  0.00    -0.287 OA
ATOM      3  C   UNL d   1      -5.015 -10.214  10.630  0.00  0.00     0.081 A 
ATOM      4  C   UNL d   1      -5.072 -11.093  10.156  0.00  0.00     0.095 A 
ATOM      5  C   UNL d   1      -4.676 -10.313   8.661  0.00  0.00     0.090 A 
ATOM      6  C   UNL d   1      -4.788  -9.385  10.119  0.00  0.00     0.190 A 
ATOM      7  C   UNL d   1      -5.188 -10.148  11.654  0.00  0.00     0.085 A 
ATOM      8  C   UNL d   1      -4.619  -9.434   9.135  0.00  0.00     0.094 A 
ATOM      9  C   UNL d   1      -5.307 -11.966  10.674  0.00  0.00     0.075 A 
ATOM     10  C   UNL d   1      -5.485 -11.922  11.700  0.00  0.00     0.071 A 
ATOM     11  C   UNL d   1      -5.425 -11.007  12.193  0.00  0.00     0.074 A 
ENDROOT
BRANCH   5  12
ATOM     12  C   UNL d   1      -4.507 -10.362   7.677  0.00  0.00    -0.002 A 
ATOM     13  C   UNL d   1      -5.237 -10.135   7.032  0.00  0.00     0.014 A 
ATOM     14  C   UNL d   1      -5.067 -10.184   6.048  0.00  0.00     0.001 A 
ATOM     15  C   UNL d   1      -4.168 -10.460   5.708  0.00  0.00     0.000 A 
ATOM     16  C   UNL d   1      -3.438 -10.687   6.353  0.00  0.00     0.001 A 
ATOM     17  C   UNL d   1      -3.608 -10.638   7.338  0.00  0.00     0.014 A 
ENDBRANCH   5  12
BRANCH   7  18
ATOM     18  O   UNL d   1      -5.128  -9.263  12.118  0.00  0.00    -0.360 OA
ATOM     19  H   UNL d   1      -5.144  -9.237  12.737  0.00  0.00     0.217 HD
ENDBRANCH   7  18
BRANCH  10  20
ATOM     20  O   UNL d   1      -5.711 -12.754  12.206  0.00  0.00    -0.361 OA
ATOM     21  H   UNL d   1      -6.090 -13.176  11.956  0.00  0.00     0.217 HD
ENDBRANCH  10  20
TORSDOF 3
ENDMDL
MODEL 4
REMARK VINA RESULT:    -8.333      2.088      4.689
REMARK INTER + INTRA:          -8.289
REMARK INTER:                  -9.297
REMARK INTRA:                   1.009
REMARK UNBOUND:                 1.018
REMARK  3 active torsions:
REMARK  status: ('A' for Active; 'I' for Inactive)
REMARK    1  A    between atoms: O_2  and  C_10 
REMARK    2  A    between atoms: O_4  and  C_13 
REMARK    3  A    between atoms: C_7  and  C_9 
ROOT
ATOM      1  O   UNL d   1      -4.635   1.532  12.129  0.00  0.00    -0.309 OA
ATOM      2  O   UNL d   1      -4.019   3.966  13.772  0.00  0.00    -0.287 OA
ATOM      3  C   UNL d   1      -3.502   2.716  12.689  0.00  0.00     0.081 A 
ATOM      4  C   UNL d   1      -3.707   1.905  12.142  0.00  0.00     0.095 A 
ATOM      5  C   UNL d   1      -5.357   1.970  12.664  0.00  0.00     0.090 A 
ATOM      6  C   UNL d   1      -4.224   3.155  13.224  0.00  0.00     0.190 A 
ATOM      7  C   UNL d   1      -2.541   3.116  12.712  0.00  0.00     0.085 A 
ATOM      8  C   UNL d   1      -5.152   2.781  13.212  0.00  0.00     0.094 A 
ATOM      9  C   UNL d   1      -2.966   1.437  11.579  0.00  0.00     0.075 A 
ATOM     10  C   UNL d   1      -1.997   1.820  11.587  0.00  0.00     0.071 A 
ATOM     11  C   UNL d   1      -1.783   2.665  12.157  0.00  0.00     0.074 A 
ENDROOT
BRANCH   5  12
ATOM     12  C   UNL d   1      -6.285   1.597  12.652  0.00  0.00    -0.002 A 
ATOM     13  C   UNL d   1      -6.983   2.012  12.068  0.00  0.00     0.014 A 
ATOM     14  C   UNL d   1      -7.911   1.639  12.056  0.00  0.00     0.001 A 
ATOM     15  C   UNL d   1      -8.141   0.851  12.627  0.00  0.00     0.000 A 
ATOM     16  C   UNL d   1      -7.443   0.436  13.211  0.00  0.00     0.001 A 
ATOM     17  C   UNL d   1      -6.515   0.809  13.223  0.00  0.00     0.014 A 
ENDBRANCH   5  12
BRANCH   7  18
ATOM     18  O   UNL d   1      -2.347   3.928  13.263  0.00  0.00    -0.360 OA
ATOM     19  H   UNL d   1      -2.560   4.481  13.084  0.00  0.00     0.217 HD
ENDBRANCH   7  18
BRANCH  10  20
ATOM     20  O   UNL d   1      -1.277   1.379  11.051  0.00  0.00    -0.361 OA
ATOM     21  H   UNL d   1      -1.296   0.767  10.952  0.00  0.00     0.217 HD
ENDBRANCH  10  20
TORSDOF 3
ENDMDL
MODEL 5
REMARK VINA RESULT:    -8.311      2.241      3.799
REMARK INTER + INTRA:          -8.264
REMARK INTER:                  -9.264
REMARK INTRA:                   1.000
REMARK UNBOUND:                 1.018
REMARK  3 active torsions:
REMARK  status: ('A' for Active; 'I' for Inactive)
REMARK    1  A    between atoms: O_2  and  C_10 
REMARK    2  A    between atoms: O_4  and  C_13 
REMARK    3  A    between atoms: C_7  and  C_9 
ROOT
ATOM      1  O   UNL d   1      -5.812   1.992  11.755  0.00  0.00    -0.309 OA
ATOM      2  O   UNL d   1      -5.731   3.115  14.536  0.00  0.00    -0.287 OA
ATOM      3  C   UNL d   1      -6.605   2.346  13.253  0.00  0.00     0.081 A 
ATOM      4  C   UNL d   1      -6.632   1.972  12.327  0.00  0.00     0.095 A 
ATOM      5  C   UNL d   1      -4.964   2.387  12.111  0.00  0.00     0.090 A 
ATOM      6  C   UNL d   1      -5.758   2.741  13.609  0.00  0.00     0.190 A 
ATOM      7  C   UNL d   1      -7.451   2.332  13.860  0.00  0.00     0.085 A 
ATOM      8  C   UNL d   1      -4.937   2.761  13.037  0.00  0.00     0.094 A 
ATOM      9  C   UNL d   1      -7.507   1.558  11.942  0.00  0.00     0.075 A 
ATOM     10  C   UNL d   1      -8.366   1.533  12.532  0.00  0.00     0.071 A 
ATOM     11  C   UNL d   1      -8.338   1.923  13.497  0.00  0.00     0.074 A 
ENDROOT
BRANCH   5  12
ATOM     12  C   UNL d   1      -4.144   2.407  11.539  0.00  0.00    -0.002 A 
ATOM     13  C   UNL d   1      -3.476   1.665  11.597  0.00  0.00     0.014 A 
ATOM     14  C   UNL d   1      -2.656   1.685  11.026  0.00  0.00     0.001 A 
ATOM     15  C   UNL d   1      -2.503   2.447  10.396  0.00  0.00     0.000 A 
ATOM     16  C   UNL d   1      -3.171   3.189  10.338  0.00  0.00     0.001 A 
ATOM     17  C   UNL d   1      -3.992   3.169  10.910  0.00  0.00     0.014 A 
ENDBRANCH   5  12
BRANCH   7  18
ATOM     18  O   UNL d   1      -7.413   2.710  14.785  0.00  0.00    -0.360 OA
ATOM     19  H   UNL d   1      -7.931   2.759  15.121  0.00  0.00     0.217 HD
ENDBRANCH   7  18
BRANCH  10  20
ATOM     20  O   UNL d   1      -9.211   1.138  12.172  0.00  0.00    -0.361 OA
ATOM     21  H   UNL d   1      -9.352   0.546  12.292  0.00  0.00     0.217 HD
ENDBRANCH  10  20
TORSDOF 3
ENDMDL
