MODEL 1
REMARK VINA RESULT:    -8.963      0.000      0.000
REMARK INTER + INTRA:         -10.269
REMARK INTER:                 -10.302
REMARK INTRA:                   0.033
REMARK UNBOUND:                 0.005
REMARK  4 active torsions:
REMARK  status: ('A' for Active; 'I' for Inactive)
REMARK    1  A    between atoms: O_1  and  C_13 
REMARK    2  A    between atoms: O_4  and  C_16 
REMARK    3  A    between atoms: O_5  and  C_18 
REMARK    4  A    between atoms: C_14  and  C_18 
ROOT
ATOM      1  O   UNL d   1      24.997  41.208  46.263  0.00  0.00    -0.286 OA
ATOM      2  O   UNL d   1      21.460  41.203  44.395  0.00  0.00    -0.287 OA
ATOM      3  C   UNL d   1      22.934  40.398  44.818  0.00  0.00     0.032 A 
ATOM      4  C   UNL d   1      23.819  40.399  45.284  0.00  0.00     0.062 A 
ATOM      5  C   UNL d   1      23.523  42.013  45.841  0.00  0.00     0.062 A 
ATOM      6  C   UNL d   1      22.639  42.011  45.374  0.00  0.00     0.032 A 
ATOM      7  C   UNL d   1      24.113  41.207  45.796  0.00  0.00     0.199 A 
ATOM      8  C   UNL d   1      22.344  41.204  44.862  0.00  0.00     0.194 A 
ATOM      9  C   UNL d   1      22.614  39.565  44.281  0.00  0.00     0.026 A 
ATOM     10  C   UNL d   1      24.444  39.567  45.247  0.00  0.00     0.081 A 
ATOM     11  C   UNL d   1      23.223  38.721  44.230  0.00  0.00    -0.031 A 
ATOM     12  C   UNL d   1      24.144  38.723  44.716  0.00  0.00     0.046 A 
ATOM     13  C   UNL d   1      23.842  42.846  46.377  0.00  0.00     0.080 A 
ATOM     14  C   UNL d   1      22.013  42.844  45.411  0.00  0.00     0.017 A 
ATOM     15  C   UNL d   1      23.233  43.689  46.428  0.00  0.00     0.037 A 
ATOM     16  C   UNL d   1      22.312  43.688  45.942  0.00  0.00     0.004 A 
ENDROOT
BRANCH  11  17
ATOM     17  C   UNL d   1      22.925  37.916  43.717  0.00  0.00     0.203 C 
BRANCH  17  18
ATOM     18  O   UNL d   1      21.952  37.695  43.656  0.00  0.00    -0.396 OA
ATOM     19  H   UNL d   1      21.562  38.086  43.373  0.00  0.00     0.209 HD
ENDBRANCH  17  18
ENDBRANCH  11  17
BRANCH  10  20
ATOM     20  O   UNL d   1      25.326  39.580  45.717  0.00  0.00    -0.360 OA
ATOM     21  H   UNL d   1      25.733  40.034  45.601  0.00  0.00     0.217 HD
ENDBRANCH  10  20
BRANCH  13  22
ATOM     22  O   UNL d   1      24.729  42.836  46.840  0.00  0.00    -0.360 OA
ATOM     23  H   UNL d   1      24.833  43.219  47.317  0.00  0.00     0.217 HD
ENDBRANCH  13  22
TORSDOF 4
ENDMDL
MODEL 2
REMARK VINA RESULT:    -8.832      9.107     10.571
REMARK INTER + INTRA:         -10.118
REMARK INTER:                 -10.125
REMARK INTRA:                   0.006
REMARK UNBOUND:                 0.005
REMARK  4 active torsions:
REMARK  status: ('A' for Active; 'I' for Inactive)
REMARK    1  A    between atoms: O_1  and  C_13 
REMARK    2  A    between atoms: O_4  and  C_16 
REMARK    3  A    between atoms: O_5  and  C_18 
REMARK    4  A    between atoms: C_14  and  C_18 
ROOT
ATOM      1  O   UNL d   1      26.174  33.084  44.695  0.00  0.00    -0.286 OA
ATOM      2  O   UNL d   1      29.552  31.090  43.912  0.00  0.00    -0.287 OA
ATOM      3  C   UNL d   1      28.533  31.934  45.030  0.00  0.00     0.032 A 
ATOM      4  C   UNL d   1      27.688  32.432  45.226  0.00  0.00     0.062 A 
ATOM      5  C   UNL d   1      27.193  32.240  43.577  0.00  0.00     0.062 A 
ATOM      6  C   UNL d   1      28.037  31.742  43.382  0.00  0.00     0.032 A 
ATOM      7  C   UNL d   1      27.018  32.585  44.499  0.00  0.00     0.199 A 
ATOM      8  C   UNL d   1      28.707  31.589  44.108  0.00  0.00     0.194 A 
ATOM      9  C   UNL d   1      29.241  31.767  45.776  0.00  0.00     0.026 A 
ATOM     10  C   UNL d   1      27.493  32.798  46.181  0.00  0.00     0.081 A 
ATOM     11  C   UNL d   1      29.066  32.124  46.739  0.00  0.00    -0.031 A 
ATOM     12  C   UNL d   1      28.186  32.642  46.943  0.00  0.00     0.046 A 
ATOM     13  C   UNL d   1      26.486  32.407  42.831  0.00  0.00     0.080 A 
ATOM     14  C   UNL d   1      28.233  31.376  42.426  0.00  0.00     0.017 A 
ATOM     15  C   UNL d   1      26.661  32.050  41.868  0.00  0.00     0.037 A 
ATOM     16  C   UNL d   1      27.540  31.531  41.664  0.00  0.00     0.004 A 
ENDROOT
BRANCH  11  17
ATOM     17  C   UNL d   1      29.739  31.968  47.463  0.00  0.00     0.203 C 
BRANCH  17  18
ATOM     18  O   UNL d   1      29.554  31.296  48.180  0.00  0.00    -0.396 OA
ATOM     19  H   UNL d   1      28.974  31.208  48.381  0.00  0.00     0.209 HD
ENDBRANCH  17  18
ENDBRANCH  11  17
BRANCH  10  20
ATOM     20  O   UNL d   1      26.645  33.295  46.365  0.00  0.00    -0.360 OA
ATOM     21  H   UNL d   1      26.448  33.729  45.968  0.00  0.00     0.217 HD
ENDBRANCH  10  20
BRANCH  13  22
ATOM     22  O   UNL d   1      25.645  32.907  43.038  0.00  0.00    -0.360 OA
ATOM     23  H   UNL d   1      25.433  33.334  42.642  0.00  0.00     0.217 HD
ENDBRANCH  13  22
TORSDOF 4
ENDMDL
MODEL 3
REMARK VINA RESULT:    -8.790      1.179      2.489
REMARK INTER + INTRA:         -10.071
REMARK INTER:                 -10.061
REMARK INTRA:                  -0.010
REMARK UNBOUND:                 0.005
REMARK  4 active torsions:
REMARK  status: ('A' for Active; 'I' for Inactive)
REMARK    1  A    between atoms: O_1  and  C_13 
REMARK    2  A    between atoms: O_4  and  C_16 
REMARK    3  A    between atoms: O_5  and  C_18 
REMARK    4  A    between atoms: C_14  and  C_18 
ROOT
ATOM      1  O   UNL d   1      21.918  40.629  43.846  0.00  0.00    -0.286 OA
ATOM      2  O   UNL d   1      24.570  40.139  46.800  0.00  0.00    -0.287 OA
ATOM      3  C   UNL d   1      23.628  39.479  45.505  0.00  0.00     0.032 A 
ATOM      4  C   UNL d   1      22.964  39.602  44.767  0.00  0.00     0.062 A 
ATOM      5  C   UNL d   1      22.861  41.290  45.140  0.00  0.00     0.062 A 
ATOM      6  C   UNL d   1      23.524  41.167  45.879  0.00  0.00     0.032 A 
ATOM      7  C   UNL d   1      22.581  40.507  44.584  0.00  0.00     0.199 A 
ATOM      8  C   UNL d   1      23.907  40.262  46.061  0.00  0.00     0.194 A 
ATOM      9  C   UNL d   1      24.036  38.542  45.707  0.00  0.00     0.026 A 
ATOM     10  C   UNL d   1      22.664  38.796  44.180  0.00  0.00     0.081 A 
ATOM     11  C   UNL d   1      23.749  37.722  45.133  0.00  0.00    -0.031 A 
ATOM     12  C   UNL d   1      23.059  37.850  44.364  0.00  0.00     0.046 A 
ATOM     13  C   UNL d   1      22.453  42.226  44.939  0.00  0.00     0.080 A 
ATOM     14  C   UNL d   1      23.825  41.973  46.466  0.00  0.00     0.017 A 
ATOM     15  C   UNL d   1      22.739  43.046  45.514  0.00  0.00     0.037 A 
ATOM     16  C   UNL d   1      23.430  42.919  46.282  0.00  0.00     0.004 A 
ENDROOT
BRANCH  11  17
ATOM     17  C   UNL d   1      24.135  36.818  45.318  0.00  0.00     0.203 C 
BRANCH  17  18
ATOM     18  O   UNL d   1      23.760  36.257  46.056  0.00  0.00    -0.396 OA
ATOM     19  H   UNL d   1      24.020  36.270  46.619  0.00  0.00     0.209 HD
ENDBRANCH  17  18
ENDBRANCH  11  17
BRANCH  10  20
ATOM     20  O   UNL d   1      22.000  38.930  43.444  0.00  0.00    -0.360 OA
ATOM     21  H   UNL d   1      22.196  39.076  42.873  0.00  0.00     0.217 HD
ENDBRANCH  10  20
BRANCH  13  22
ATOM     22  O   UNL d   1      21.791  42.337  44.198  0.00  0.00    -0.360 OA
ATOM     23  H   UNL d   1      21.795  41.945  43.717  0.00  0.00     0.217 HD
ENDBRANCH  13  22
TORSDOF 4
ENDMDL
MODEL 4
REMARK VINA RESULT:    -8.767      8.627     10.176
REMARK INTER + INTRA:         -10.044
REMARK INTER:                 -10.064
REMARK INTRA:                   0.020
REMARK UNBOUND:                 0.005
REMARK  4 active torsions:
REMARK  status: ('A' for Active; 'I' for Inactive)
REMARK    1  A    between atoms: O_1  and  C_13 
REMARK    2  A    between atoms: O_4  and  C_16 
REMARK    3  A    between atoms: O_5  and  C_18 
REMARK    4  A    between atoms: C_14  and  C_18 
ROOT
ATOM      1  O   UNL d   1      31.353  38.487  47.364  0.00  0.00    -0.286 OA
ATOM      2  O   UNL d   1      33.552  38.396  44.024  0.00  0.00    -0.287 OA
ATOM      3  C   UNL d   1      32.621  39.284  45.183  0.00  0.00     0.032 A 
ATOM      4  C   UNL d   1      32.071  39.307  46.018  0.00  0.00     0.062 A 
ATOM      5  C   UNL d   1      32.285  37.598  46.205  0.00  0.00     0.062 A 
ATOM      6  C   UNL d   1      32.835  37.576  45.370  0.00  0.00     0.032 A 
ATOM      7  C   UNL d   1      31.903  38.464  46.529  0.00  0.00     0.199 A 
ATOM      8  C   UNL d   1      33.003  38.419  44.859  0.00  0.00     0.194 A 
ATOM      9  C   UNL d   1      32.805  40.154  44.640  0.00  0.00     0.026 A 
ATOM     10  C   UNL d   1      31.667  40.201  46.368  0.00  0.00     0.081 A 
ATOM     11  C   UNL d   1      32.410  41.059  44.971  0.00  0.00    -0.031 A 
ATOM     12  C   UNL d   1      31.838  41.083  45.841  0.00  0.00     0.046 A 
ATOM     13  C   UNL d   1      32.101  36.729  46.748  0.00  0.00     0.080 A 
ATOM     14  C   UNL d   1      33.239  36.682  45.020  0.00  0.00     0.017 A 
ATOM     15  C   UNL d   1      32.496  35.823  46.417  0.00  0.00     0.037 A 
ATOM     16  C   UNL d   1      33.068  35.800  45.547  0.00  0.00     0.004 A 
ENDROOT
BRANCH  11  17
ATOM     17  C   UNL d   1      32.581  41.900  44.457  0.00  0.00     0.203 C 
BRANCH  17  18
ATOM     18  O   UNL d   1      33.487  42.074  44.071  0.00  0.00    -0.396 OA
ATOM     19  H   UNL d   1      33.542  42.254  43.480  0.00  0.00     0.209 HD
ENDBRANCH  17  18
ENDBRANCH  11  17
BRANCH  10  20
ATOM     20  O   UNL d   1      31.119  40.212  47.204  0.00  0.00    -0.360 OA
ATOM     21  H   UNL d   1      31.286  40.574  47.679  0.00  0.00     0.217 HD
ENDBRANCH  10  20
BRANCH  13  22
ATOM     22  O   UNL d   1      31.550  36.763  47.581  0.00  0.00    -0.360 OA
ATOM     23  H   UNL d   1      31.797  36.588  48.123  0.00  0.00     0.217 HD
ENDBRANCH  13  22
TORSDOF 4
ENDMDL
MODEL 5
REMARK VINA RESULT:    -8.738      1.238      4.487
REMARK INTER + INTRA:         -10.010
REMARK INTER:                 -10.003
REMARK INTRA:                  -0.007
REMARK UNBOUND:                 0.005
REMARK  4 active torsions:
REMARK  status: ('A' for Active; 'I' for Inactive)
REMARK    1  A    between atoms: O_1  and  C_13 
REMARK    2  A    between atoms: O_4  and  C_16 
REMARK    3  A    between atoms: O_5  and  C_18 
REMARK    4  A    between atoms: C_14  and  C_18 
ROOT
ATOM      1  O   UNL d   1      22.241  38.896  43.567  0.00  0.00    -0.286 OA
ATOM      2  O   UNL d   1      24.227  40.176  46.794  0.00  0.00    -0.287 OA
ATOM      3  C   UNL d   1      23.151  40.488  45.474  0.00  0.00     0.032 A 
ATOM      4  C   UNL d   1      22.654  40.169  44.667  0.00  0.00     0.062 A 
ATOM      5  C   UNL d   1      23.317  38.584  44.887  0.00  0.00     0.062 A 
ATOM      6  C   UNL d   1      23.814  38.904  45.694  0.00  0.00     0.032 A 
ATOM      7  C   UNL d   1      22.738  39.216  44.374  0.00  0.00     0.199 A 
ATOM      8  C   UNL d   1      23.731  39.856  45.987  0.00  0.00     0.194 A 
ATOM      9  C   UNL d   1      23.074  41.478  45.792  0.00  0.00     0.026 A 
ATOM     10  C   UNL d   1      22.047  40.816  44.122  0.00  0.00     0.081 A 
ATOM     11  C   UNL d   1      22.472  42.142  45.262  0.00  0.00    -0.031 A 
ATOM     12  C   UNL d   1      21.956  41.809  44.422  0.00  0.00     0.046 A 
ATOM     13  C   UNL d   1      23.394  37.595  44.570  0.00  0.00     0.080 A 
ATOM     14  C   UNL d   1      24.422  38.257  46.240  0.00  0.00     0.017 A 
ATOM     15  C   UNL d   1      23.996  36.930  45.100  0.00  0.00     0.037 A 
ATOM     16  C   UNL d   1      24.513  37.263  45.940  0.00  0.00     0.004 A 
ENDROOT
BRANCH  11  17
ATOM     17  C   UNL d   1      22.392  43.094  45.558  0.00  0.00     0.203 C 
BRANCH  17  18
ATOM     18  O   UNL d   1      21.760  43.336  46.295  0.00  0.00    -0.396 OA
ATOM     19  H   UNL d   1      21.159  43.192  46.248  0.00  0.00     0.209 HD
ENDBRANCH  17  18
ENDBRANCH  11  17
BRANCH  10  20
ATOM     20  O   UNL d   1      21.555  40.485  43.317  0.00  0.00    -0.360 OA
ATOM     21  H   UNL d   1      20.979  40.262  43.376  0.00  0.00     0.217 HD
ENDBRANCH  10  20
BRANCH  13  22
ATOM     22  O   UNL d   1      22.893  37.286  43.762  0.00  0.00    -0.360 OA
ATOM     23  H   UNL d   1      22.285  37.169  43.801  0.00  0.00     0.217 HD
ENDBRANCH  13  22
TORSDOF 4
ENDMDL
