MODEL 1
REMARK VINA RESULT:    -7.991      0.000      0.000
REMARK INTER + INTRA:          -7.731
REMARK INTER:                  -9.559
REMARK INTRA:                   1.828
REMARK UNBOUND:                 1.895
REMARK  5 active torsions:
REMARK  status: ('A' for Active; 'I' for Inactive)
REMARK    1  A    between atoms: O_2  and  C_13 
REMARK    2  A    between atoms: O_3  and  C_19 
REMARK    3  A    between atoms: O_5  and  C_17 
REMARK    4  A    between atoms: O_6  and  C_21 
REMARK    5  A    between atoms: C_8  and  C_10 
ROOT
ATOM      1  O   UNL d   1      23.585  15.104   0.643  0.00  0.00    -0.309 OA
ATOM      2  O   UNL d   1      21.308  15.130   2.596  0.00  0.00    -0.287 OA
ATOM      3  C   UNL d   1      22.506  14.257   1.700  0.00  0.00     0.081 A 
ATOM      4  C   UNL d   1      23.147  15.969   0.888  0.00  0.00     0.090 A 
ATOM      5  C   UNL d   1      23.265  14.248   1.049  0.00  0.00     0.095 A 
ATOM      6  C   UNL d   1      22.067  15.121   1.945  0.00  0.00     0.190 A 
ATOM      7  C   UNL d   1      22.388  15.977   1.539  0.00  0.00     0.094 A 
ATOM      8  C   UNL d   1      22.162  13.373   2.131  0.00  0.00     0.085 A 
ATOM      9  C   UNL d   1      23.732  13.356   0.784  0.00  0.00     0.075 A 
ATOM     10  C   UNL d   1      23.404  12.460   1.203  0.00  0.00     0.071 A 
ATOM     11  C   UNL d   1      22.614  12.469   1.880  0.00  0.00     0.074 A 
ENDROOT
BRANCH   4  12
ATOM     12  C   UNL d   1      23.467  16.825   0.482  0.00  0.00     0.001 A 
ATOM     13  C   UNL d   1      23.119  17.117  -0.409  0.00  0.00     0.054 A 
ATOM     14  C   UNL d   1      23.439  17.973  -0.815  0.00  0.00     0.102 A 
ATOM     15  C   UNL d   1      24.107  18.537  -0.330  0.00  0.00     0.099 A 
ATOM     16  C   UNL d   1      24.456  18.245   0.561  0.00  0.00     0.040 A 
ATOM     17  C   UNL d   1      24.135  17.389   0.967  0.00  0.00     0.017 A 
BRANCH  14  18
ATOM     18  O   UNL d   1      23.090  18.265  -1.705  0.00  0.00    -0.353 OA
ATOM     19  C   UNL d   1      22.559  17.630  -2.267  0.00  0.00     0.210 C 
ENDBRANCH  14  18
BRANCH  15  20
ATOM     20  O   UNL d   1      24.427  19.392  -0.736  0.00  0.00    -0.358 OA
ATOM     21  H   UNL d   1      24.569  19.874  -0.372  0.00  0.00     0.217 HD
ENDBRANCH  15  20
ENDBRANCH   4  12
BRANCH   8  22
ATOM     22  O   UNL d   1      21.402  13.394   2.781  0.00  0.00    -0.360 OA
ATOM     23  H   UNL d   1      21.367  12.968   3.230  0.00  0.00     0.217 HD
ENDBRANCH   8  22
BRANCH  10  24
ATOM     24  O   UNL d   1      23.846  11.598   0.955  0.00  0.00    -0.361 OA
ATOM     25  H   UNL d   1      24.463  11.544   0.991  0.00  0.00     0.217 HD
ENDBRANCH  10  24
TORSDOF 5
ENDMDL
MODEL 2
REMARK VINA RESULT:    -7.901     17.232     20.591
REMARK INTER + INTRA:          -7.622
REMARK INTER:                  -9.501
REMARK INTRA:                   1.878
REMARK UNBOUND:                 1.895
REMARK  5 active torsions:
REMARK  status: ('A' for Active; 'I' for Inactive)
REMARK    1  A    between atoms: O_2  and  C_13 
REMARK    2  A    between atoms: O_3  and  C_19 
REMARK    3  A    between atoms: O_5  and  C_17 
REMARK    4  A    between atoms: O_6  and  C_21 
REMARK    5  A    between atoms: C_8  and  C_10 
ROOT
ATOM      1  O   UNL d   1      18.522   0.001  11.633  0.00  0.00    -0.309 OA
ATOM      2  O   UNL d   1      17.554  -1.502   9.223  0.00  0.00    -0.287 OA
ATOM      3  C   UNL d   1      18.539  -0.259   9.921  0.00  0.00     0.081 A 
ATOM      4  C   UNL d   1      17.860  -0.741  11.739  0.00  0.00     0.090 A 
ATOM      5  C   UNL d   1      18.862   0.242  10.724  0.00  0.00     0.095 A 
ATOM      6  C   UNL d   1      17.877  -1.001  10.027  0.00  0.00     0.190 A 
ATOM      7  C   UNL d   1      17.537  -1.242  10.936  0.00  0.00     0.094 A 
ATOM      8  C   UNL d   1      18.884  -0.019   8.968  0.00  0.00     0.085 A 
ATOM      9  C   UNL d   1      19.552   1.017  10.630  0.00  0.00     0.075 A 
ATOM     10  C   UNL d   1      19.910   1.273   9.686  0.00  0.00     0.071 A 
ATOM     11  C   UNL d   1      19.574   0.752   8.850  0.00  0.00     0.074 A 
ENDROOT
BRANCH   4  12
ATOM     12  C   UNL d   1      17.520  -0.982  12.648  0.00  0.00     0.001 A 
ATOM     13  C   UNL d   1      16.888  -0.371  13.124  0.00  0.00     0.054 A 
ATOM     14  C   UNL d   1      16.548  -0.612  14.033  0.00  0.00     0.102 A 
ATOM     15  C   UNL d   1      16.840  -1.464  14.466  0.00  0.00     0.099 A 
ATOM     16  C   UNL d   1      17.473  -2.075  13.990  0.00  0.00     0.040 A 
ATOM     17  C   UNL d   1      17.813  -1.834  13.081  0.00  0.00     0.017 A 
BRANCH  14  18
ATOM     18  O   UNL d   1      15.916  -0.000  14.509  0.00  0.00    -0.353 OA
ATOM     19  C   UNL d   1      15.639   0.862  14.084  0.00  0.00     0.210 C 
ENDBRANCH  14  18
BRANCH  15  20
ATOM     20  O   UNL d   1      16.501  -1.705  15.375  0.00  0.00    -0.358 OA
ATOM     21  H   UNL d   1      16.900  -1.818  15.836  0.00  0.00     0.217 HD
ENDBRANCH  15  20
ENDBRANCH   4  12
BRANCH   8  22
ATOM     22  O   UNL d   1      18.555  -0.527   8.172  0.00  0.00    -0.360 OA
ATOM     23  H   UNL d   1      18.932  -0.920   7.877  0.00  0.00     0.217 HD
ENDBRANCH   8  22
BRANCH  10  24
ATOM     24  O   UNL d   1      20.572   2.016   9.585  0.00  0.00    -0.361 OA
ATOM     25  H   UNL d   1      21.169   1.886   9.477  0.00  0.00     0.217 HD
ENDBRANCH  10  24
TORSDOF 5
ENDMDL
MODEL 3
REMARK VINA RESULT:    -7.778     14.306     16.146
REMARK INTER + INTRA:          -7.474
REMARK INTER:                  -9.309
REMARK INTRA:                   1.835
REMARK UNBOUND:                 1.895
REMARK  5 active torsions:
REMARK  status: ('A' for Active; 'I' for Inactive)
REMARK    1  A    between atoms: O_2  and  C_13 
REMARK    2  A    between atoms: O_3  and  C_19 
REMARK    3  A    between atoms: O_5  and  C_17 
REMARK    4  A    between atoms: O_6  and  C_21 
REMARK    5  A    between atoms: C_8  and  C_10 
ROOT
ATOM      1  O   UNL d   1      14.842   9.283  11.745  0.00  0.00    -0.309 OA
ATOM      2  O   UNL d   1      14.899   6.714  13.293  0.00  0.00    -0.287 OA
ATOM      3  C   UNL d   1      15.106   7.572  11.803  0.00  0.00     0.081 A 
ATOM      4  C   UNL d   1      14.616   9.281  12.719  0.00  0.00     0.090 A 
ATOM      5  C   UNL d   1      15.088   8.428  11.287  0.00  0.00     0.095 A 
ATOM      6  C   UNL d   1      14.880   7.570  12.777  0.00  0.00     0.190 A 
ATOM      7  C   UNL d   1      14.635   8.425  13.235  0.00  0.00     0.094 A 
ATOM      8  C   UNL d   1      15.360   6.674  11.340  0.00  0.00     0.085 A 
ATOM      9  C   UNL d   1      15.321   8.446  10.271  0.00  0.00     0.075 A 
ATOM     10  C   UNL d   1      15.577   7.560   9.788  0.00  0.00     0.071 A 
ATOM     11  C   UNL d   1      15.597   6.668  10.325  0.00  0.00     0.074 A 
ENDROOT
BRANCH   4  12
ATOM     12  C   UNL d   1      14.371  10.135  13.176  0.00  0.00     0.001 A 
ATOM     13  C   UNL d   1      13.411  10.401  13.258  0.00  0.00     0.054 A 
ATOM     14  C   UNL d   1      13.166  11.256  13.716  0.00  0.00     0.102 A 
ATOM     15  C   UNL d   1      13.881  11.845  14.092  0.00  0.00     0.099 A 
ATOM     16  C   UNL d   1      14.842  11.579  14.010  0.00  0.00     0.040 A 
ATOM     17  C   UNL d   1      15.087  10.724  13.553  0.00  0.00     0.017 A 
BRANCH  14  18
ATOM     18  O   UNL d   1      12.205  11.522  13.798  0.00  0.00    -0.353 OA
ATOM     19  C   UNL d   1      11.524  11.133  13.177  0.00  0.00     0.210 C 
ENDBRANCH  14  18
BRANCH  15  20
ATOM     20  O   UNL d   1      13.636  12.699  14.550  0.00  0.00    -0.358 OA
ATOM     21  H   UNL d   1      13.328  13.139  14.241  0.00  0.00     0.217 HD
ENDBRANCH  15  20
ENDBRANCH   4  12
BRANCH   8  22
ATOM     22  O   UNL d   1      15.375   5.824  11.866  0.00  0.00    -0.360 OA
ATOM     23  H   UNL d   1      14.950   5.387  11.760  0.00  0.00     0.217 HD
ENDBRANCH   8  22
BRANCH  10  24
ATOM     24  O   UNL d   1      15.803   7.566   8.813  0.00  0.00    -0.361 OA
ATOM     25  H   UNL d   1      16.391   7.635   8.632  0.00  0.00     0.217 HD
ENDBRANCH  10  24
TORSDOF 5
ENDMDL
MODEL 4
REMARK VINA RESULT:    -7.748      1.541      5.332
REMARK INTER + INTRA:          -7.438
REMARK INTER:                  -9.362
REMARK INTRA:                   1.924
REMARK UNBOUND:                 1.895
REMARK  5 active torsions:
REMARK  status: ('A' for Active; 'I' for Inactive)
REMARK    1  A    between atoms: O_2  and  C_13 
REMARK    2  A    between atoms: O_3  and  C_19 
REMARK    3  A    between atoms: O_5  and  C_17 
REMARK    4  A    between atoms: O_6  and  C_21 
REMARK    5  A    between atoms: C_8  and  C_10 
ROOT
ATOM      1  O   UNL d   1      23.589  15.629   0.521  0.00  0.00    -0.309 OA
ATOM      2  O   UNL d   1      25.462  15.492  -1.818  0.00  0.00    -0.287 OA
ATOM      3  C   UNL d   1      24.552  16.425  -0.678  0.00  0.00     0.081 A 
ATOM      4  C   UNL d   1      23.875  14.741   0.161  0.00  0.00     0.090 A 
ATOM      5  C   UNL d   1      23.927  16.471   0.102  0.00  0.00     0.095 A 
ATOM      6  C   UNL d   1      24.837  15.537  -1.038  0.00  0.00     0.190 A 
ATOM      7  C   UNL d   1      24.499  14.695  -0.619  0.00  0.00     0.094 A 
ATOM      8  C   UNL d   1      24.912  17.294  -1.125  0.00  0.00     0.085 A 
ATOM      9  C   UNL d   1      23.621  17.389   0.489  0.00  0.00     0.075 A 
ATOM     10  C   UNL d   1      23.969  18.270   0.057  0.00  0.00     0.071 A 
ATOM     11  C   UNL d   1      24.619  18.223  -0.755  0.00  0.00     0.074 A 
ENDROOT
BRANCH   4  12
ATOM     12  C   UNL d   1      23.536  13.899   0.581  0.00  0.00     0.001 A 
ATOM     13  C   UNL d   1      22.555  13.706   0.595  0.00  0.00     0.054 A 
ATOM     14  C   UNL d   1      22.216  12.864   1.014  0.00  0.00     0.102 A 
ATOM     15  C   UNL d   1      22.859  12.214   1.420  0.00  0.00     0.099 A 
ATOM     16  C   UNL d   1      23.840  12.407   1.406  0.00  0.00     0.040 A 
ATOM     17  C   UNL d   1      24.179  13.249   0.986  0.00  0.00     0.017 A 
BRANCH  14  18
ATOM     18  O   UNL d   1      21.235  12.672   1.028  0.00  0.00    -0.353 OA
ATOM     19  C   UNL d   1      20.611  13.218   0.470  0.00  0.00     0.210 C 
ENDBRANCH  14  18
BRANCH  15  20
ATOM     20  O   UNL d   1      22.521  11.372   1.839  0.00  0.00    -0.358 OA
ATOM     21  H   UNL d   1      22.507  11.317   2.457  0.00  0.00     0.217 HD
ENDBRANCH  15  20
ENDBRANCH   4  12
BRANCH   8  22
ATOM     22  O   UNL d   1      25.536  17.236  -1.904  0.00  0.00    -0.360 OA
ATOM     23  H   UNL d   1      26.131  17.087  -1.815  0.00  0.00     0.217 HD
ENDBRANCH   8  22
BRANCH  10  24
ATOM     24  O   UNL d   1      23.681  19.156   0.420  0.00  0.00    -0.361 OA
ATOM     25  H   UNL d   1      23.086  19.252   0.568  0.00  0.00     0.217 HD
ENDBRANCH  10  24
TORSDOF 5
ENDMDL
MODEL 5
REMARK VINA RESULT:    -7.549     18.101     20.420
REMARK INTER + INTRA:          -7.199
REMARK INTER:                  -9.095
REMARK INTRA:                   1.896
REMARK UNBOUND:                 1.895
REMARK  5 active torsions:
REMARK  status: ('A' for Active; 'I' for Inactive)
REMARK    1  A    between atoms: O_2  and  C_13 
REMARK    2  A    between atoms: O_3  and  C_19 
REMARK    3  A    between atoms: O_5  and  C_17 
REMARK    4  A    between atoms: O_6  and  C_21 
REMARK    5  A    between atoms: C_8  and  C_10 
ROOT
ATOM      1  O   UNL d   1      17.853  -1.141  12.002  0.00  0.00    -0.309 OA
ATOM      2  O   UNL d   1      16.951   1.330  13.444  0.00  0.00    -0.287 OA
ATOM      3  C   UNL d   1      17.087  -0.395  13.365  0.00  0.00     0.081 A 
ATOM      4  C   UNL d   1      18.018  -0.240  11.601  0.00  0.00     0.090 A 
ATOM      5  C   UNL d   1      17.388  -1.219  12.884  0.00  0.00     0.095 A 
ATOM      6  C   UNL d   1      17.252   0.506  12.964  0.00  0.00     0.190 A 
ATOM      7  C   UNL d   1      17.717   0.584  12.082  0.00  0.00     0.094 A 
ATOM      8  C   UNL d   1      16.602  -0.460  14.284  0.00  0.00     0.085 A 
ATOM      9  C   UNL d   1      17.224  -2.164  13.289  0.00  0.00     0.075 A 
ATOM     10  C   UNL d   1      16.740  -2.253  14.207  0.00  0.00     0.071 A 
ATOM     11  C   UNL d   1      16.427  -1.396  14.708  0.00  0.00     0.074 A 
ENDROOT
BRANCH   4  12
ATOM     12  C   UNL d   1      18.483  -0.163  10.719  0.00  0.00     0.001 A 
ATOM     13  C   UNL d   1      18.052  -0.526   9.893  0.00  0.00     0.054 A 
ATOM     14  C   UNL d   1      18.517  -0.448   9.011  0.00  0.00     0.102 A 
ATOM     15  C   UNL d   1      19.413  -0.008   8.956  0.00  0.00     0.099 A 
ATOM     16  C   UNL d   1      19.844   0.356   9.782  0.00  0.00     0.040 A 
ATOM     17  C   UNL d   1      19.379   0.278  10.664  0.00  0.00     0.017 A 
BRANCH  14  18
ATOM     18  O   UNL d   1      18.086  -0.812   8.185  0.00  0.00    -0.353 OA
ATOM     19  C   UNL d   1      17.200  -1.270   8.244  0.00  0.00     0.210 C 
ENDBRANCH  14  18
BRANCH  15  20
ATOM     20  O   UNL d   1      19.878   0.070   8.074  0.00  0.00    -0.358 OA
ATOM     21  H   UNL d   1      20.354   0.462   8.008  0.00  0.00     0.217 HD
ENDBRANCH  15  20
ENDBRANCH   4  12
BRANCH   8  22
ATOM     22  O   UNL d   1      16.305   0.370  14.756  0.00  0.00    -0.360 OA
ATOM     23  H   UNL d   1      16.039   0.331  15.314  0.00  0.00     0.217 HD
ENDBRANCH   8  22
BRANCH  10  24
ATOM     24  O   UNL d   1      16.578  -3.156  14.605  0.00  0.00    -0.361 OA
ATOM     25  H   UNL d   1      16.008  -3.399  14.600  0.00  0.00     0.217 HD
ENDBRANCH  10  24
TORSDOF 5
ENDMDL
