MODEL 1
REMARK VINA RESULT:   -11.020      0.000      0.000
REMARK INTER + INTRA:          -6.179
REMARK INTER:                 -14.892
REMARK INTRA:                   8.713
REMARK UNBOUND:                 8.707
REMARK  9 active torsions:
REMARK  status: ('A' for Active; 'I' for Inactive)
REMARK    1  A    between atoms: O_3  and  C_17 
REMARK    2  A    between atoms: O_4  and  C_18 
REMARK    3  A    between atoms: O_5  and  C_19 
REMARK    4  A    between atoms: O_7  and  C_32 
REMARK    5  A    between atoms: O_9  and  C_36 
REMARK    6  A    between atoms: O_10  and  C_40 
REMARK    7  A    between atoms: C_11  and  C_13 
REMARK    8  A    between atoms: C_15  and  C_20 
REMARK    9  A    between atoms: C_22  and  C_29 
ROOT
ATOM      1  O   UNL d   1      39.608  13.634  36.884  0.00  0.00    -0.308 OA
ATOM      2  O   UNL d   1      42.200  14.157  35.326  0.00  0.00    -0.287 OA
ATOM      3  C   UNL d   1      39.012  12.721  35.503  0.00  0.00     0.045 A 
ATOM      4  C   UNL d   1      39.743  13.259  35.921  0.00  0.00     0.107 A 
ATOM      5  C   UNL d   1      40.589  13.432  35.417  0.00  0.00     0.082 A 
ATOM      6  C   UNL d   1      39.126  12.355  34.579  0.00  0.00     0.082 A 
ATOM      7  C   UNL d   1      40.703  13.066  34.493  0.00  0.00     0.085 A 
ATOM      8  C   UNL d   1      39.972  12.527  34.074  0.00  0.00     0.075 A 
ATOM      9  C   UNL d   1      40.366  14.196  37.327  0.00  0.00     0.090 A 
ATOM     10  C   UNL d   1      41.359  13.991  35.840  0.00  0.00     0.190 A 
ATOM     11  C   UNL d   1      41.247  14.375  36.801  0.00  0.00     0.094 A 
ENDROOT
BRANCH   3  12
ATOM     12  C   UNL d   1      38.166  12.548  36.007  0.00  0.00     0.014 A 
ATOM     13  C   UNL d   1      37.403  13.192  35.940  0.00  0.00     0.029 A 
ATOM     14  C   UNL d   1      36.558  13.020  36.445  0.00  0.00    -0.001 A 
ATOM     15  C   UNL d   1      36.474  12.204  37.017  0.00  0.00     0.017 A 
ATOM     16  C   UNL d   1      37.236  11.560  37.084  0.00  0.00     0.038 A 
ATOM     17  C   UNL d   1      38.082  11.732  36.579  0.00  0.00     0.076 A 
BRANCH  14  18
ATOM     18  C   UNL d   1      35.795  13.664  36.378  0.00  0.00     0.090 A 
ATOM     19  O   UNL d   1      35.227  13.682  35.555  0.00  0.00    -0.309 OA
ATOM     20  C   UNL d   1      34.465  14.326  35.488  0.00  0.00     0.095 A 
ATOM     21  C   UNL d   1      34.271  14.951  36.244  0.00  0.00     0.081 A 
ATOM     22  C   UNL d   1      33.882  14.334  34.624  0.00  0.00     0.075 A 
ATOM     23  C   UNL d   1      34.839  14.933  37.067  0.00  0.00     0.190 A 
ATOM     24  C   UNL d   1      33.480  15.628  36.189  0.00  0.00     0.085 A 
ATOM     25  O   UNL d   1      34.645  15.558  37.823  0.00  0.00    -0.287 OA
ATOM     26  C   UNL d   1      35.601  14.289  37.134  0.00  0.00     0.094 A 
ATOM     27  C   UNL d   1      32.884  15.653  35.334  0.00  0.00     0.074 A 
ATOM     28  C   UNL d   1      33.086  15.001  34.547  0.00  0.00     0.071 A 
BRANCH  24  29
ATOM     29  O   UNL d   1      33.295  16.248  36.950  0.00  0.00    -0.360 OA
ATOM     30  H   UNL d   1      32.965  16.052  37.437  0.00  0.00     0.217 HD
ENDBRANCH  24  29
BRANCH  28  31
ATOM     31  O   UNL d   1      32.520  15.017  33.723  0.00  0.00    -0.361 OA
ATOM     32  H   UNL d   1      32.732  15.288  33.206  0.00  0.00     0.217 HD
ENDBRANCH  28  31
ENDBRANCH  14  18
BRANCH  17  33
ATOM     33  O   UNL d   1      38.844  11.089  36.646  0.00  0.00    -0.360 OA
ATOM     34  H   UNL d   1      39.428  11.298  36.648  0.00  0.00     0.217 HD
ENDBRANCH  17  33
ENDBRANCH   3  12
BRANCH   6  35
ATOM     35  O   UNL d   1      38.395  11.816  34.160  0.00  0.00    -0.360 OA
ATOM     36  H   UNL d   1      38.015  12.079  33.747  0.00  0.00     0.217 HD
ENDBRANCH   6  35
BRANCH   9  37
ATOM     37  C   UNL d   1      40.247  14.560  38.251  0.00  0.00    -0.002 A 
ATOM     38  C   UNL d   1      39.657  14.084  38.903  0.00  0.00     0.017 A 
ATOM     39  C   UNL d   1      39.537  14.448  39.827  0.00  0.00     0.037 A 
ATOM     40  C   UNL d   1      40.008  15.287  40.098  0.00  0.00     0.065 A 
ATOM     41  C   UNL d   1      40.599  15.763  39.446  0.00  0.00     0.037 A 
ATOM     42  C   UNL d   1      40.717  15.399  38.522  0.00  0.00     0.017 A 
BRANCH  40  43
ATOM     43  O   UNL d   1      39.890  15.652  41.022  0.00  0.00    -0.361 OA
ATOM     44  H   UNL d   1      39.863  16.265  41.112  0.00  0.00     0.217 HD
ENDBRANCH  40  43
ENDBRANCH   9  37
BRANCH   7  45
ATOM     45  O   UNL d   1      41.549  13.238  33.988  0.00  0.00    -0.360 OA
ATOM     46  H   UNL d   1      41.540  13.271  33.369  0.00  0.00     0.217 HD
ENDBRANCH   7  45
TORSDOF 9
ENDMDL
MODEL 2
REMARK VINA RESULT:   -10.801      0.704      1.457
REMARK INTER + INTRA:          -5.883
REMARK INTER:                 -14.590
REMARK INTRA:                   8.707
REMARK UNBOUND:                 8.707
REMARK  9 active torsions:
REMARK  status: ('A' for Active; 'I' for Inactive)
REMARK    1  A    between atoms: O_3  and  C_17 
REMARK    2  A    between atoms: O_4  and  C_18 
REMARK    3  A    between atoms: O_5  and  C_19 
REMARK    4  A    between atoms: O_7  and  C_32 
REMARK    5  A    between atoms: O_9  and  C_36 
REMARK    6  A    between atoms: O_10  and  C_40 
REMARK    7  A    between atoms: C_11  and  C_13 
REMARK    8  A    between atoms: C_15  and  C_20 
REMARK    9  A    between atoms: C_22  and  C_29 
ROOT
ATOM      1  O   UNL d   1      39.752  13.634  36.926  0.00  0.00    -0.308 OA
ATOM      2  O   UNL d   1      42.324  14.288  35.384  0.00  0.00    -0.287 OA
ATOM      3  C   UNL d   1      39.189  12.735  35.520  0.00  0.00     0.045 A 
ATOM      4  C   UNL d   1      39.900  13.289  35.954  0.00  0.00     0.107 A 
ATOM      5  C   UNL d   1      40.740  13.504  35.455  0.00  0.00     0.082 A 
ATOM      6  C   UNL d   1      39.317  12.397  34.588  0.00  0.00     0.082 A 
ATOM      7  C   UNL d   1      40.868  13.166  34.522  0.00  0.00     0.085 A 
ATOM      8  C   UNL d   1      40.156  12.612  34.089  0.00  0.00     0.075 A 
ATOM      9  C   UNL d   1      40.489  14.211  37.383  0.00  0.00     0.090 A 
ATOM     10  C   UNL d   1      41.489  14.079  35.893  0.00  0.00     0.190 A 
ATOM     11  C   UNL d   1      41.363  14.435  36.863  0.00  0.00     0.094 A 
ENDROOT
BRANCH   3  12
ATOM     12  C   UNL d   1      38.349  12.520  36.020  0.00  0.00     0.014 A 
ATOM     13  C   UNL d   1      37.565  13.137  35.968  0.00  0.00     0.029 A 
ATOM     14  C   UNL d   1      36.725  12.922  36.467  0.00  0.00    -0.001 A 
ATOM     15  C   UNL d   1      36.671  12.089  37.018  0.00  0.00     0.017 A 
ATOM     16  C   UNL d   1      37.456  11.472  37.069  0.00  0.00     0.038 A 
ATOM     17  C   UNL d   1      38.295  11.687  36.570  0.00  0.00     0.076 A 
BRANCH  14  18
ATOM     18  C   UNL d   1      35.940  13.539  36.415  0.00  0.00     0.090 A 
ATOM     19  O   UNL d   1      35.617  14.007  37.238  0.00  0.00    -0.309 OA
ATOM     20  C   UNL d   1      34.832  14.625  37.186  0.00  0.00     0.095 A 
ATOM     21  C   UNL d   1      34.371  14.774  36.311  0.00  0.00     0.081 A 
ATOM     22  C   UNL d   1      34.506  15.105  38.051  0.00  0.00     0.075 A 
ATOM     23  C   UNL d   1      34.694  14.307  35.489  0.00  0.00     0.190 A 
ATOM     24  C   UNL d   1      33.552  15.415  36.242  0.00  0.00     0.085 A 
ATOM     25  O   UNL d   1      34.233  14.457  34.614  0.00  0.00    -0.287 OA
ATOM     26  C   UNL d   1      35.479  13.689  35.540  0.00  0.00     0.094 A 
ATOM     27  C   UNL d   1      33.209  15.905  37.095  0.00  0.00     0.074 A 
ATOM     28  C   UNL d   1      33.690  15.749  38.005  0.00  0.00     0.071 A 
BRANCH  24  29
ATOM     29  O   UNL d   1      33.098  15.557  35.362  0.00  0.00    -0.360 OA
ATOM     30  H   UNL d   1      32.754  16.065  35.269  0.00  0.00     0.217 HD
ENDBRANCH  24  29
BRANCH  28  31
ATOM     31  O   UNL d   1      33.369  16.215  38.830  0.00  0.00    -0.361 OA
ATOM     32  H   UNL d   1      33.669  16.136  39.367  0.00  0.00     0.217 HD
ENDBRANCH  28  31
ENDBRANCH  14  18
BRANCH  17  33
ATOM     33  O   UNL d   1      39.080  11.070  36.622  0.00  0.00    -0.360 OA
ATOM     34  H   UNL d   1      39.654  11.300  36.660  0.00  0.00     0.217 HD
ENDBRANCH  17  33
ENDBRANCH   3  12
BRANCH   6  35
ATOM     35  O   UNL d   1      38.606  11.843  34.155  0.00  0.00    -0.360 OA
ATOM     36  H   UNL d   1      38.649  11.698  33.554  0.00  0.00     0.217 HD
ENDBRANCH   6  35
BRANCH   9  37
ATOM     37  C   UNL d   1      40.356  14.547  38.316  0.00  0.00    -0.002 A 
ATOM     38  C   UNL d   1      39.870  13.985  38.985  0.00  0.00     0.017 A 
ATOM     39  C   UNL d   1      39.738  14.320  39.918  0.00  0.00     0.037 A 
ATOM     40  C   UNL d   1      40.091  15.218  40.181  0.00  0.00     0.065 A 
ATOM     41  C   UNL d   1      40.578  15.780  39.512  0.00  0.00     0.037 A 
ATOM     42  C   UNL d   1      40.710  15.444  38.579  0.00  0.00     0.017 A 
BRANCH  40  43
ATOM     43  O   UNL d   1      39.959  15.554  41.114  0.00  0.00    -0.361 OA
ATOM     44  H   UNL d   1      40.087  15.186  41.597  0.00  0.00     0.217 HD
ENDBRANCH  40  43
ENDBRANCH   9  37
BRANCH   7  45
ATOM     45  O   UNL d   1      41.707  13.381  34.023  0.00  0.00    -0.360 OA
ATOM     46  H   UNL d   1      41.711  13.368  33.403  0.00  0.00     0.217 HD
ENDBRANCH   7  45
TORSDOF 9
ENDMDL
MODEL 3
REMARK VINA RESULT:   -10.196     35.435     37.689
REMARK INTER + INTRA:          -5.066
REMARK INTER:                 -13.592
REMARK INTRA:                   8.527
REMARK UNBOUND:                 8.707
REMARK  9 active torsions:
REMARK  status: ('A' for Active; 'I' for Inactive)
REMARK    1  A    between atoms: O_3  and  C_17 
REMARK    2  A    between atoms: O_4  and  C_18 
REMARK    3  A    between atoms: O_5  and  C_19 
REMARK    4  A    between atoms: O_7  and  C_32 
REMARK    5  A    between atoms: O_9  and  C_36 
REMARK    6  A    between atoms: O_10  and  C_40 
REMARK    7  A    between atoms: C_11  and  C_13 
REMARK    8  A    between atoms: C_15  and  C_20 
REMARK    9  A    between atoms: C_22  and  C_29 
ROOT
ATOM      1  O   UNL d   1      45.017  24.232   2.741  0.00  0.00    -0.308 OA
ATOM      2  O   UNL d   1      47.800  24.544   3.996  0.00  0.00    -0.287 OA
ATOM      3  C   UNL d   1      45.638  22.881   1.800  0.00  0.00     0.045 A 
ATOM      4  C   UNL d   1      45.801  23.600   2.476  0.00  0.00     0.107 A 
ATOM      5  C   UNL d   1      46.707  23.704   2.886  0.00  0.00     0.082 A 
ATOM      6  C   UNL d   1      46.382  22.267   1.535  0.00  0.00     0.082 A 
ATOM      7  C   UNL d   1      47.450  23.090   2.621  0.00  0.00     0.085 A 
ATOM      8  C   UNL d   1      47.287  22.371   1.946  0.00  0.00     0.075 A 
ATOM      9  C   UNL d   1      45.179  24.983   3.445  0.00  0.00     0.090 A 
ATOM     10  C   UNL d   1      46.891  24.448   3.591  0.00  0.00     0.190 A 
ATOM     11  C   UNL d   1      46.122  25.092   3.873  0.00  0.00     0.094 A 
ENDROOT
BRANCH   3  12
ATOM     12  C   UNL d   1      44.733  22.776   1.389  0.00  0.00     0.014 A 
ATOM     13  C   UNL d   1      44.496  23.289   0.564  0.00  0.00     0.029 A 
ATOM     14  C   UNL d   1      43.590  23.185   0.153  0.00  0.00    -0.001 A 
ATOM     15  C   UNL d   1      42.921  22.567   0.567  0.00  0.00     0.017 A 
ATOM     16  C   UNL d   1      43.158  22.054   1.392  0.00  0.00     0.038 A 
ATOM     17  C   UNL d   1      44.064  22.159   1.803  0.00  0.00     0.076 A 
BRANCH  14  18
ATOM     18  C   UNL d   1      43.353  23.698  -0.672  0.00  0.00     0.090 A 
ATOM     19  O   UNL d   1      43.328  23.236  -1.558  0.00  0.00    -0.309 OA
ATOM     20  C   UNL d   1      43.091  23.749  -2.383  0.00  0.00     0.095 A 
ATOM     21  C   UNL d   1      42.879  24.724  -2.322  0.00  0.00     0.081 A 
ATOM     22  C   UNL d   1      43.069  23.253  -3.300  0.00  0.00     0.075 A 
ATOM     23  C   UNL d   1      42.903  25.186  -1.435  0.00  0.00     0.190 A 
ATOM     24  C   UNL d   1      42.630  25.272  -3.172  0.00  0.00     0.085 A 
ATOM     25  O   UNL d   1      42.691  26.161  -1.374  0.00  0.00    -0.287 OA
ATOM     26  C   UNL d   1      43.140  24.673  -0.610  0.00  0.00     0.094 A 
ATOM     27  C   UNL d   1      42.602  24.797  -4.099  0.00  0.00     0.074 A 
ATOM     28  C   UNL d   1      42.823  23.781  -4.163  0.00  0.00     0.071 A 
BRANCH  24  29
ATOM     29  O   UNL d   1      42.419  26.246  -3.099  0.00  0.00    -0.360 OA
ATOM     30  H   UNL d   1      42.188  26.551  -3.588  0.00  0.00     0.217 HD
ENDBRANCH  24  29
BRANCH  28  31
ATOM     31  O   UNL d   1      42.799  23.315  -5.048  0.00  0.00    -0.361 OA
ATOM     32  H   UNL d   1      42.520  23.584  -5.532  0.00  0.00     0.217 HD
ENDBRANCH  28  31
ENDBRANCH  14  18
BRANCH  17  33
ATOM     33  O   UNL d   1      44.301  21.646   2.628  0.00  0.00    -0.360 OA
ATOM     34  H   UNL d   1      43.881  21.277   2.895  0.00  0.00     0.217 HD
ENDBRANCH  17  33
ENDBRANCH   3  12
BRANCH   6  35
ATOM     35  O   UNL d   1      46.219  21.548   0.859  0.00  0.00    -0.360 OA
ATOM     36  H   UNL d   1      46.033  21.697   0.287  0.00  0.00     0.217 HD
ENDBRANCH   6  35
BRANCH   9  37
ATOM     37  C   UNL d   1      44.432  25.596   3.707  0.00  0.00    -0.002 A 
ATOM     38  C   UNL d   1      43.656  25.242   4.229  0.00  0.00     0.017 A 
ATOM     39  C   UNL d   1      42.910  25.853   4.492  0.00  0.00     0.037 A 
ATOM     40  C   UNL d   1      42.940  26.819   4.232  0.00  0.00     0.065 A 
ATOM     41  C   UNL d   1      43.717  27.172   3.710  0.00  0.00     0.037 A 
ATOM     42  C   UNL d   1      44.463  26.560   3.448  0.00  0.00     0.017 A 
BRANCH  40  43
ATOM     43  O   UNL d   1      42.194  27.431   4.494  0.00  0.00    -0.361 OA
ATOM     44  H   UNL d   1      42.316  28.018   4.655  0.00  0.00     0.217 HD
ENDBRANCH  40  43
ENDBRANCH   9  37
BRANCH   7  45
ATOM     45  O   UNL d   1      48.356  23.195   3.032  0.00  0.00    -0.360 OA
ATOM     46  H   UNL d   1      48.793  22.766   2.932  0.00  0.00     0.217 HD
ENDBRANCH   7  45
TORSDOF 9
ENDMDL
MODEL 4
REMARK VINA RESULT:   -10.035     37.789     40.264
REMARK INTER + INTRA:          -4.847
REMARK INTER:                 -13.713
REMARK INTRA:                   8.866
REMARK UNBOUND:                 8.707
REMARK  9 active torsions:
REMARK  status: ('A' for Active; 'I' for Inactive)
REMARK    1  A    between atoms: O_3  and  C_17 
REMARK    2  A    between atoms: O_4  and  C_18 
REMARK    3  A    between atoms: O_5  and  C_19 
REMARK    4  A    between atoms: O_7  and  C_32 
REMARK    5  A    between atoms: O_9  and  C_36 
REMARK    6  A    between atoms: O_10  and  C_40 
REMARK    7  A    between atoms: C_11  and  C_13 
REMARK    8  A    between atoms: C_15  and  C_20 
REMARK    9  A    between atoms: C_22  and  C_29 
ROOT
ATOM      1  O   UNL d   1      25.115  16.852  -2.545  0.00  0.00    -0.308 OA
ATOM      2  O   UNL d   1      27.874  16.649  -3.874  0.00  0.00    -0.287 OA
ATOM      3  C   UNL d   1      25.906  17.452  -1.091  0.00  0.00     0.045 A 
ATOM      4  C   UNL d   1      25.981  17.122  -2.032  0.00  0.00     0.107 A 
ATOM      5  C   UNL d   1      26.878  17.054  -2.468  0.00  0.00     0.082 A 
ATOM      6  C   UNL d   1      26.728  17.714  -0.586  0.00  0.00     0.082 A 
ATOM      7  C   UNL d   1      27.700  17.316  -1.963  0.00  0.00     0.085 A 
ATOM      8  C   UNL d   1      27.625  17.646  -1.022  0.00  0.00     0.075 A 
ATOM      9  C   UNL d   1      25.185  16.508  -3.526  0.00  0.00     0.090 A 
ATOM     10  C   UNL d   1      26.972  16.712  -3.448  0.00  0.00     0.190 A 
ATOM     11  C   UNL d   1      26.120  16.437  -3.980  0.00  0.00     0.094 A 
ENDROOT
BRANCH   3  12
ATOM     12  C   UNL d   1      25.008  17.519  -0.655  0.00  0.00     0.014 A 
ATOM     13  C   UNL d   1      24.622  16.728  -0.182  0.00  0.00     0.029 A 
ATOM     14  C   UNL d   1      23.724  16.795   0.254  0.00  0.00    -0.001 A 
ATOM     15  C   UNL d   1      23.213  17.654   0.217  0.00  0.00     0.017 A 
ATOM     16  C   UNL d   1      23.600  18.446  -0.257  0.00  0.00     0.038 A 
ATOM     17  C   UNL d   1      24.497  18.378  -0.693  0.00  0.00     0.076 A 
BRANCH  14  18
ATOM     18  C   UNL d   1      23.338  16.004   0.728  0.00  0.00     0.090 A 
ATOM     19  O   UNL d   1      23.676  15.085   0.525  0.00  0.00    -0.309 OA
ATOM     20  C   UNL d   1      23.290  14.294   0.999  0.00  0.00     0.095 A 
ATOM     21  C   UNL d   1      22.564  14.421   1.675  0.00  0.00     0.081 A 
ATOM     22  C   UNL d   1      23.653  13.343   0.777  0.00  0.00     0.075 A 
ATOM     23  C   UNL d   1      22.226  15.340   1.878  0.00  0.00     0.190 A 
ATOM     24  C   UNL d   1      22.152  13.607   2.177  0.00  0.00     0.085 A 
ATOM     25  O   UNL d   1      21.500  15.468   2.555  0.00  0.00    -0.287 OA
ATOM     26  C   UNL d   1      22.612  16.132   1.404  0.00  0.00     0.094 A 
ATOM     27  C   UNL d   1      22.500  12.646   1.971  0.00  0.00     0.074 A 
ATOM     28  C   UNL d   1      23.255  12.513   1.266  0.00  0.00     0.071 A 
BRANCH  24  29
ATOM     29  O   UNL d   1      21.427  13.746   2.851  0.00  0.00    -0.360 OA
ATOM     30  H   UNL d   1      20.837  13.626   2.702  0.00  0.00     0.217 HD
ENDBRANCH  24  29
BRANCH  28  31
ATOM     31  O   UNL d   1      23.596  11.596   1.060  0.00  0.00    -0.361 OA
ATOM     32  H   UNL d   1      24.013  11.515   0.608  0.00  0.00     0.217 HD
ENDBRANCH  28  31
ENDBRANCH  14  18
BRANCH  17  33
ATOM     33  O   UNL d   1      24.884  19.169  -1.167  0.00  0.00    -0.360 OA
ATOM     34  H   UNL d   1      24.526  19.515  -1.536  0.00  0.00     0.217 HD
ENDBRANCH  17  33
ENDBRANCH   3  12
BRANCH   6  35
ATOM     35  O   UNL d   1      26.653  18.044   0.355  0.00  0.00    -0.360 OA
ATOM     36  H   UNL d   1      26.694  17.644   0.827  0.00  0.00     0.217 HD
ENDBRANCH   6  35
BRANCH   9  37
ATOM     37  C   UNL d   1      24.360  16.247  -4.028  0.00  0.00    -0.002 A 
ATOM     38  C   UNL d   1      23.842  15.437  -3.750  0.00  0.00     0.017 A 
ATOM     39  C   UNL d   1      23.017  15.176  -4.250  0.00  0.00     0.037 A 
ATOM     40  C   UNL d   1      22.711  15.723  -5.029  0.00  0.00     0.065 A 
ATOM     41  C   UNL d   1      23.229  16.532  -5.307  0.00  0.00     0.037 A 
ATOM     42  C   UNL d   1      24.054  16.793  -4.806  0.00  0.00     0.017 A 
BRANCH  40  43
ATOM     43  O   UNL d   1      21.886  15.462  -5.531  0.00  0.00    -0.361 OA
ATOM     44  H   UNL d   1      21.409  15.857  -5.572  0.00  0.00     0.217 HD
ENDBRANCH  40  43
ENDBRANCH   9  37
BRANCH   7  45
ATOM     45  O   UNL d   1      28.598  17.249  -2.399  0.00  0.00    -0.360 OA
ATOM     46  H   UNL d   1      29.111  17.242  -2.052  0.00  0.00     0.217 HD
ENDBRANCH   7  45
TORSDOF 9
ENDMDL
MODEL 5
REMARK VINA RESULT:    -9.872      1.979      6.170
REMARK INTER + INTRA:          -4.627
REMARK INTER:                 -13.274
REMARK INTRA:                   8.646
REMARK UNBOUND:                 8.707
REMARK  9 active torsions:
REMARK  status: ('A' for Active; 'I' for Inactive)
REMARK    1  A    between atoms: O_3  and  C_17 
REMARK    2  A    between atoms: O_4  and  C_18 
REMARK    3  A    between atoms: O_5  and  C_19 
REMARK    4  A    between atoms: O_7  and  C_32 
REMARK    5  A    between atoms: O_9  and  C_36 
REMARK    6  A    between atoms: O_10  and  C_40 
REMARK    7  A    between atoms: C_11  and  C_13 
REMARK    8  A    between atoms: C_15  and  C_20 
REMARK    9  A    between atoms: C_22  and  C_29 
ROOT
ATOM      1  O   UNL d   1      37.897  13.124  37.851  0.00  0.00    -0.308 OA
ATOM      2  O   UNL d   1      35.078  14.077  37.098  0.00  0.00    -0.287 OA
ATOM      3  C   UNL d   1      38.147  12.671  36.169  0.00  0.00     0.045 A 
ATOM      4  C   UNL d   1      37.549  13.055  36.872  0.00  0.00     0.107 A 
ATOM      5  C   UNL d   1      36.630  13.367  36.630  0.00  0.00     0.082 A 
ATOM      6  C   UNL d   1      37.827  12.599  35.224  0.00  0.00     0.082 A 
ATOM      7  C   UNL d   1      36.310  13.294  35.685  0.00  0.00     0.085 A 
ATOM      8  C   UNL d   1      36.908  12.911  34.982  0.00  0.00     0.075 A 
ATOM      9  C   UNL d   1      37.279  13.522  38.589  0.00  0.00     0.090 A 
ATOM     10  C   UNL d   1      35.995  13.768  37.351  0.00  0.00     0.190 A 
ATOM     11  C   UNL d   1      36.321  13.847  38.337  0.00  0.00     0.094 A 
ENDROOT
BRANCH   3  12
ATOM     12  C   UNL d   1      39.066  12.360  36.410  0.00  0.00     0.014 A 
ATOM     13  C   UNL d   1      39.843  12.985  36.333  0.00  0.00     0.029 A 
ATOM     14  C   UNL d   1      40.762  12.673  36.575  0.00  0.00    -0.001 A 
ATOM     15  C   UNL d   1      40.904  11.736  36.893  0.00  0.00     0.017 A 
ATOM     16  C   UNL d   1      40.128  11.111  36.970  0.00  0.00     0.038 A 
ATOM     17  C   UNL d   1      39.209  11.422  36.729  0.00  0.00     0.076 A 
BRANCH  14  18
ATOM     18  C   UNL d   1      41.538  13.299  36.498  0.00  0.00     0.090 A 
ATOM     19  O   UNL d   1      41.973  13.660  37.323  0.00  0.00    -0.309 OA
ATOM     20  C   UNL d   1      42.750  14.285  37.246  0.00  0.00     0.095 A 
ATOM     21  C   UNL d   1      43.091  14.550  36.344  0.00  0.00     0.081 A 
ATOM     22  C   UNL d   1      43.193  14.653  38.114  0.00  0.00     0.075 A 
ATOM     23  C   UNL d   1      42.656  14.189  35.519  0.00  0.00     0.190 A 
ATOM     24  C   UNL d   1      43.899  15.200  36.248  0.00  0.00     0.085 A 
ATOM     25  O   UNL d   1      42.997  14.453  34.617  0.00  0.00    -0.287 OA
ATOM     26  C   UNL d   1      41.880  13.563  35.596  0.00  0.00     0.094 A 
ATOM     27  C   UNL d   1      44.357  15.581  37.103  0.00  0.00     0.074 A 
ATOM     28  C   UNL d   1      44.002  15.305  38.042  0.00  0.00     0.071 A 
BRANCH  24  29
ATOM     29  O   UNL d   1      44.232  15.458  35.341  0.00  0.00    -0.360 OA
ATOM     30  H   UNL d   1      44.554  15.984  35.266  0.00  0.00     0.217 HD
ENDBRANCH  24  29
BRANCH  28  31
ATOM     31  O   UNL d   1      44.434  15.664  38.869  0.00  0.00    -0.361 OA
ATOM     32  H   UNL d   1      44.490  16.277  38.949  0.00  0.00     0.217 HD
ENDBRANCH  28  31
ENDBRANCH  14  18
BRANCH  17  33
ATOM     33  O   UNL d   1      38.433  10.797  36.806  0.00  0.00    -0.360 OA
ATOM     34  H   UNL d   1      38.489  10.208  36.620  0.00  0.00     0.217 HD
ENDBRANCH  17  33
ENDBRANCH   3  12
BRANCH   6  35
ATOM     35  O   UNL d   1      38.426  12.215  34.521  0.00  0.00    -0.360 OA
ATOM     36  H   UNL d   1      38.182  11.966  34.008  0.00  0.00     0.217 HD
ENDBRANCH   6  35
BRANCH   9  37
ATOM     37  C   UNL d   1      37.603  13.593  39.532  0.00  0.00    -0.002 A 
ATOM     38  C   UNL d   1      37.001  13.334  40.288  0.00  0.00     0.017 A 
ATOM     39  C   UNL d   1      37.324  13.404  41.231  0.00  0.00     0.037 A 
ATOM     40  C   UNL d   1      38.249  13.733  41.419  0.00  0.00     0.065 A 
ATOM     41  C   UNL d   1      38.852  13.992  40.664  0.00  0.00     0.037 A 
ATOM     42  C   UNL d   1      38.527  13.922  39.720  0.00  0.00     0.017 A 
BRANCH  40  43
ATOM     43  O   UNL d   1      38.574  13.804  42.363  0.00  0.00    -0.361 OA
ATOM     44  H   UNL d   1      38.283  13.493  42.815  0.00  0.00     0.217 HD
ENDBRANCH  40  43
ENDBRANCH   9  37
BRANCH   7  45
ATOM     45  O   UNL d   1      35.391  13.606  35.444  0.00  0.00    -0.360 OA
ATOM     46  H   UNL d   1      34.958  13.195  35.275  0.00  0.00     0.217 HD
ENDBRANCH   7  45
TORSDOF 9
ENDMDL
