MODEL 1
REMARK VINA RESULT:    -7.273      0.000      0.000
REMARK INTER + INTRA:          -4.359
REMARK INTER:                  -9.610
REMARK INTRA:                   5.251
REMARK UNBOUND:                 5.040
REMARK  6 active torsions:
REMARK  status: ('A' for Active; 'I' for Inactive)
REMARK    1  A    between atoms: O_2  and  C_15 
REMARK    2  A    between atoms: O_3  and  C_17 
REMARK    3  A    between atoms: O_4  and  C_11 
REMARK    4  A    between atoms: O_6  and  C_22 
REMARK    5  A    between atoms: O_7  and  C_20 
REMARK    6  A    between atoms: C_10  and  C_13 
ROOT
ATOM      1  O   UNL d   1      17.472  -1.502  11.983  0.00  0.00    -0.309 OA
ATOM      2  O   UNL d   1      19.371   0.644  13.081  0.00  0.00    -0.287 OA
ATOM      3  C   UNL d   1      18.569  -0.132  11.708  0.00  0.00     0.084 A 
ATOM      4  C   UNL d   1      17.951  -0.830  11.346  0.00  0.00     0.096 A 
ATOM      5  C   UNL d   1      17.639  -1.445  13.009  0.00  0.00     0.090 A 
ATOM      6  C   UNL d   1      19.022   0.505  11.085  0.00  0.00     0.119 A 
ATOM      7  C   UNL d   1      18.751  -0.058  12.731  0.00  0.00     0.190 A 
ATOM      8  C   UNL d   1      17.786  -0.890  10.362  0.00  0.00     0.078 A 
ATOM      9  C   UNL d   1      18.857   0.445  10.101  0.00  0.00     0.136 A 
ATOM     10  C   UNL d   1      18.283  -0.718  13.386  0.00  0.00     0.094 A 
ATOM     11  C   UNL d   1      18.239  -0.253   9.739  0.00  0.00     0.107 A 
ENDROOT
BRANCH   5  12
ATOM     12  C   UNL d   1      17.184  -2.084  13.629  0.00  0.00     0.001 A 
ATOM     13  C   UNL d   1      16.802  -1.756  14.493  0.00  0.00     0.053 A 
ATOM     14  C   UNL d   1      16.347  -2.395  15.114  0.00  0.00     0.099 A 
ATOM     15  C   UNL d   1      16.275  -3.362  14.870  0.00  0.00     0.101 A 
ATOM     16  C   UNL d   1      16.657  -3.690  14.006  0.00  0.00     0.040 A 
ATOM     17  C   UNL d   1      17.112  -3.051  13.386  0.00  0.00     0.017 A 
BRANCH  14  18
ATOM     18  O   UNL d   1      15.964  -2.067  15.978  0.00  0.00    -0.358 OA
ATOM     19  H   UNL d   1      16.338  -1.846  16.419  0.00  0.00     0.217 HD
ENDBRANCH  14  18
BRANCH  15  20
ATOM     20  O   UNL d   1      15.820  -4.001  15.490  0.00  0.00    -0.353 OA
ATOM     21  C   UNL d   1      15.837  -4.982  15.298  0.00  0.00     0.210 C 
ENDBRANCH  15  20
ENDBRANCH   5  12
BRANCH   6  22
ATOM     22  O   UNL d   1      19.641   1.203  11.446  0.00  0.00    -0.357 OA
ATOM     23  H   UNL d   1      19.485   1.803  11.413  0.00  0.00     0.218 HD
ENDBRANCH   6  22
BRANCH  11  24
ATOM     24  O   UNL d   1      18.073  -0.313   8.755  0.00  0.00    -0.353 OA
ATOM     25  C   UNL d   1      17.478  -1.029   8.391  0.00  0.00     0.210 C 
ENDBRANCH  11  24
BRANCH   9  26
ATOM     26  O   UNL d   1      19.310   1.083   9.478  0.00  0.00    -0.351 OA
ATOM     27  C   UNL d   1      20.223   0.875   9.126  0.00  0.00     0.210 C 
ENDBRANCH   9  26
TORSDOF 6
ENDMDL
MODEL 2
REMARK VINA RESULT:    -7.164     18.039     22.404
REMARK INTER + INTRA:          -4.218
REMARK INTER:                  -9.339
REMARK INTRA:                   5.121
REMARK UNBOUND:                 5.040
REMARK  6 active torsions:
REMARK  status: ('A' for Active; 'I' for Inactive)
REMARK    1  A    between atoms: O_2  and  C_15 
REMARK    2  A    between atoms: O_3  and  C_17 
REMARK    3  A    between atoms: O_4  and  C_11 
REMARK    4  A    between atoms: O_6  and  C_22 
REMARK    5  A    between atoms: O_7  and  C_20 
REMARK    6  A    between atoms: C_10  and  C_13 
ROOT
ATOM      1  O   UNL d   1      23.856  15.642   0.202  0.00  0.00    -0.309 OA
ATOM      2  O   UNL d   1      21.444  16.857   1.661  0.00  0.00    -0.287 OA
ATOM      3  C   UNL d   1      22.445  15.452   1.264  0.00  0.00     0.084 A 
ATOM      4  C   UNL d   1      23.230  15.053   0.790  0.00  0.00     0.096 A 
ATOM      5  C   UNL d   1      23.661  16.661   0.106  0.00  0.00     0.090 A 
ATOM      6  C   UNL d   1      21.853  14.874   1.826  0.00  0.00     0.119 A 
ATOM      7  C   UNL d   1      22.232  16.468   1.183  0.00  0.00     0.190 A 
ATOM      8  C   UNL d   1      23.423  14.076   0.878  0.00  0.00     0.078 A 
ATOM      9  C   UNL d   1      22.046  13.897   1.913  0.00  0.00     0.136 A 
ATOM     10  C   UNL d   1      22.844  17.077   0.600  0.00  0.00     0.094 A 
ATOM     11  C   UNL d   1      22.831  13.498   1.439  0.00  0.00     0.107 A 
ENDROOT
BRANCH   5  12
ATOM     12  C   UNL d   1      24.255  17.236  -0.456  0.00  0.00     0.001 A 
ATOM     13  C   UNL d   1      25.228  17.314  -0.237  0.00  0.00     0.053 A 
ATOM     14  C   UNL d   1      25.823  17.890  -0.799  0.00  0.00     0.099 A 
ATOM     15  C   UNL d   1      25.444  18.387  -1.580  0.00  0.00     0.101 A 
ATOM     16  C   UNL d   1      24.472  18.309  -1.799  0.00  0.00     0.040 A 
ATOM     17  C   UNL d   1      23.878  17.734  -1.237  0.00  0.00     0.017 A 
BRANCH  14  18
ATOM     18  O   UNL d   1      26.796  17.968  -0.581  0.00  0.00    -0.358 OA
ATOM     19  H   UNL d   1      27.135  17.459  -0.488  0.00  0.00     0.217 HD
ENDBRANCH  14  18
BRANCH  15  20
ATOM     20  O   UNL d   1      26.038  18.962  -2.142  0.00  0.00    -0.353 OA
ATOM     21  C   UNL d   1      25.718  19.298  -3.027  0.00  0.00     0.210 C 
ENDBRANCH  15  20
ENDBRANCH   5  12
BRANCH   6  22
ATOM     22  O   UNL d   1      21.068  15.273   2.300  0.00  0.00    -0.357 OA
ATOM     23  H   UNL d   1      20.997  15.187   2.910  0.00  0.00     0.218 HD
ENDBRANCH   6  22
BRANCH  11  24
ATOM     24  O   UNL d   1      23.023  12.520   1.526  0.00  0.00    -0.353 OA
ATOM     25  C   UNL d   1      23.790  12.115   1.028  0.00  0.00     0.210 C 
ENDBRANCH  11  24
BRANCH   9  26
ATOM     26  O   UNL d   1      21.454  13.319   2.475  0.00  0.00    -0.351 OA
ATOM     27  C   UNL d   1      21.518  13.356   3.472  0.00  0.00     0.210 C 
ENDBRANCH   9  26
TORSDOF 6
ENDMDL
MODEL 3
REMARK VINA RESULT:    -7.065     33.235     34.871
REMARK INTER + INTRA:          -4.090
REMARK INTER:                  -9.163
REMARK INTRA:                   5.073
REMARK UNBOUND:                 5.040
REMARK  6 active torsions:
REMARK  status: ('A' for Active; 'I' for Inactive)
REMARK    1  A    between atoms: O_2  and  C_15 
REMARK    2  A    between atoms: O_3  and  C_17 
REMARK    3  A    between atoms: O_4  and  C_11 
REMARK    4  A    between atoms: O_6  and  C_22 
REMARK    5  A    between atoms: O_7  and  C_20 
REMARK    6  A    between atoms: C_10  and  C_13 
ROOT
ATOM      1  O   UNL d   1      38.507  13.296  35.982  0.00  0.00    -0.309 OA
ATOM      2  O   UNL d   1      38.801  10.691  37.578  0.00  0.00    -0.287 OA
ATOM      3  C   UNL d   1      39.522  11.974  36.595  0.00  0.00     0.084 A 
ATOM      4  C   UNL d   1      39.430  12.822  36.075  0.00  0.00     0.096 A 
ATOM      5  C   UNL d   1      37.668  12.880  36.439  0.00  0.00     0.090 A 
ATOM      6  C   UNL d   1      40.415  11.530  36.675  0.00  0.00     0.119 A 
ATOM      7  C   UNL d   1      38.697  11.540  37.060  0.00  0.00     0.190 A 
ATOM      8  C   UNL d   1      40.231  13.227  35.634  0.00  0.00     0.078 A 
ATOM      9  C   UNL d   1      41.216  11.935  36.234  0.00  0.00     0.136 A 
ATOM     10  C   UNL d   1      37.764  11.995  36.982  0.00  0.00     0.094 A 
ATOM     11  C   UNL d   1      41.124  12.784  35.713  0.00  0.00     0.107 A 
ENDROOT
BRANCH   5  12
ATOM     12  C   UNL d   1      36.777  13.326  36.357  0.00  0.00     0.001 A 
ATOM     13  C   UNL d   1      36.326  13.693  37.170  0.00  0.00     0.053 A 
ATOM     14  C   UNL d   1      35.434  14.140  37.089  0.00  0.00     0.099 A 
ATOM     15  C   UNL d   1      34.995  14.218  36.194  0.00  0.00     0.101 A 
ATOM     16  C   UNL d   1      35.446  13.851  35.381  0.00  0.00     0.040 A 
ATOM     17  C   UNL d   1      36.337  13.405  35.463  0.00  0.00     0.017 A 
BRANCH  14  18
ATOM     18  O   UNL d   1      34.982  14.507  37.902  0.00  0.00    -0.358 OA
ATOM     19  H   UNL d   1      34.912  15.119  37.968  0.00  0.00     0.217 HD
ENDBRANCH  14  18
BRANCH  15  20
ATOM     20  O   UNL d   1      34.104  14.664  36.113  0.00  0.00    -0.353 OA
ATOM     21  C   UNL d   1      33.655  14.727  35.221  0.00  0.00     0.210 C 
ENDBRANCH  15  20
ENDBRANCH   5  12
BRANCH   6  22
ATOM     22  O   UNL d   1      40.507  10.681  37.196  0.00  0.00    -0.357 OA
ATOM     23  H   UNL d   1      40.745  10.176  36.926  0.00  0.00     0.218 HD
ENDBRANCH   6  22
BRANCH  11  24
ATOM     24  O   UNL d   1      41.925  13.189  35.273  0.00  0.00    -0.353 OA
ATOM     25  C   UNL d   1      41.818  13.986  34.678  0.00  0.00     0.210 C 
ENDBRANCH  11  24
BRANCH   9  26
ATOM     26  O   UNL d   1      42.108  11.492  36.314  0.00  0.00    -0.351 OA
ATOM     27  C   UNL d   1      42.628  11.563  37.166  0.00  0.00     0.210 C 
ENDBRANCH   9  26
TORSDOF 6
ENDMDL
MODEL 4
REMARK VINA RESULT:    -7.062     33.235     35.053
REMARK INTER + INTRA:          -4.087
REMARK INTER:                  -9.185
REMARK INTRA:                   5.098
REMARK UNBOUND:                 5.040
REMARK  6 active torsions:
REMARK  status: ('A' for Active; 'I' for Inactive)
REMARK    1  A    between atoms: O_2  and  C_15 
REMARK    2  A    between atoms: O_3  and  C_17 
REMARK    3  A    between atoms: O_4  and  C_11 
REMARK    4  A    between atoms: O_6  and  C_22 
REMARK    5  A    between atoms: O_7  and  C_20 
REMARK    6  A    between atoms: C_10  and  C_13 
ROOT
ATOM      1  O   UNL d   1      37.944  13.346  35.864  0.00  0.00    -0.309 OA
ATOM      2  O   UNL d   1      38.250  12.763  38.861  0.00  0.00    -0.287 OA
ATOM      3  C   UNL d   1      37.220  13.138  37.472  0.00  0.00     0.084 A 
ATOM      4  C   UNL d   1      37.116  13.329  36.496  0.00  0.00     0.096 A 
ATOM      5  C   UNL d   1      38.892  13.163  36.254  0.00  0.00     0.090 A 
ATOM      6  C   UNL d   1      36.416  13.125  38.067  0.00  0.00     0.119 A 
ATOM      7  C   UNL d   1      38.158  12.952  37.884  0.00  0.00     0.190 A 
ATOM      8  C   UNL d   1      36.209  13.506  36.115  0.00  0.00     0.078 A 
ATOM      9  C   UNL d   1      35.509  13.302  37.686  0.00  0.00     0.136 A 
ATOM     10  C   UNL d   1      39.000  12.964  37.271  0.00  0.00     0.094 A 
ATOM     11  C   UNL d   1      35.405  13.492  36.709  0.00  0.00     0.107 A 
ENDROOT
BRANCH   5  12
ATOM     12  C   UNL d   1      39.694  13.177  35.657  0.00  0.00     0.001 A 
ATOM     13  C   UNL d   1      40.387  13.889  35.768  0.00  0.00     0.053 A 
ATOM     14  C   UNL d   1      41.190  13.904  35.171  0.00  0.00     0.099 A 
ATOM     15  C   UNL d   1      41.298  13.206  34.462  0.00  0.00     0.101 A 
ATOM     16  C   UNL d   1      40.604  12.494  34.351  0.00  0.00     0.040 A 
ATOM     17  C   UNL d   1      39.803  12.480  34.948  0.00  0.00     0.017 A 
BRANCH  14  18
ATOM     18  O   UNL d   1      41.884  14.615  35.281  0.00  0.00    -0.358 OA
ATOM     19  H   UNL d   1      42.479  14.489  35.167  0.00  0.00     0.217 HD
ENDBRANCH  14  18
BRANCH  15  20
ATOM     20  O   UNL d   1      42.099  13.220  33.865  0.00  0.00    -0.353 OA
ATOM     21  C   UNL d   1      42.227  12.502  33.182  0.00  0.00     0.210 C 
ENDBRANCH  15  20
ENDBRANCH   5  12
BRANCH   6  22
ATOM     22  O   UNL d   1      36.519  12.934  39.043  0.00  0.00    -0.357 OA
ATOM     23  H   UNL d   1      36.309  13.340  39.462  0.00  0.00     0.218 HD
ENDBRANCH   6  22
BRANCH  11  24
ATOM     24  O   UNL d   1      34.498  13.669  36.328  0.00  0.00    -0.353 OA
ATOM     25  C   UNL d   1      34.408  14.151  35.456  0.00  0.00     0.210 C 
ENDBRANCH  11  24
BRANCH   9  26
ATOM     26  O   UNL d   1      34.705  13.288  38.280  0.00  0.00    -0.351 OA
ATOM     27  C   UNL d   1      34.366  12.420  38.643  0.00  0.00     0.210 C 
ENDBRANCH   9  26
TORSDOF 6
ENDMDL
MODEL 5
REMARK VINA RESULT:    -7.041     18.423     22.199
REMARK INTER + INTRA:          -4.059
REMARK INTER:                  -9.342
REMARK INTRA:                   5.283
REMARK UNBOUND:                 5.040
REMARK  6 active torsions:
REMARK  status: ('A' for Active; 'I' for Inactive)
REMARK    1  A    between atoms: O_2  and  C_15 
REMARK    2  A    between atoms: O_3  and  C_17 
REMARK    3  A    between atoms: O_4  and  C_11 
REMARK    4  A    between atoms: O_6  and  C_22 
REMARK    5  A    between atoms: O_7  and  C_20 
REMARK    6  A    between atoms: C_10  and  C_13 
ROOT
ATOM      1  O   UNL d   1      24.719  15.306  -0.606  0.00  0.00    -0.309 OA
ATOM      2  O   UNL d   1      23.874  18.048   0.482  0.00  0.00    -0.287 OA
ATOM      3  C   UNL d   1      24.851  17.077  -0.628  0.00  0.00     0.084 A 
ATOM      4  C   UNL d   1      25.129  16.185  -0.985  0.00  0.00     0.096 A 
ATOM      5  C   UNL d   1      24.010  15.357   0.155  0.00  0.00     0.090 A 
ATOM      6  C   UNL d   1      25.254  17.913  -1.002  0.00  0.00     0.119 A 
ATOM      7  C   UNL d   1      24.144  17.151   0.132  0.00  0.00     0.190 A 
ATOM      8  C   UNL d   1      25.809  16.129  -1.716  0.00  0.00     0.078 A 
ATOM      9  C   UNL d   1      25.934  17.857  -1.733  0.00  0.00     0.136 A 
ATOM     10  C   UNL d   1      23.720  16.286   0.527  0.00  0.00     0.094 A 
ATOM     11  C   UNL d   1      26.211  16.965  -2.090  0.00  0.00     0.107 A 
ENDROOT
BRANCH   5  12
ATOM     12  C   UNL d   1      23.610  14.519   0.527  0.00  0.00     0.001 A 
ATOM     13  C   UNL d   1      22.663  14.518   0.849  0.00  0.00     0.053 A 
ATOM     14  C   UNL d   1      22.262  13.681   1.221  0.00  0.00     0.099 A 
ATOM     15  C   UNL d   1      22.808  12.844   1.270  0.00  0.00     0.101 A 
ATOM     16  C   UNL d   1      23.755  12.845   0.948  0.00  0.00     0.040 A 
ATOM     17  C   UNL d   1      24.155  13.683   0.577  0.00  0.00     0.017 A 
BRANCH  14  18
ATOM     18  O   UNL d   1      21.315  13.679   1.544  0.00  0.00    -0.358 OA
ATOM     19  H   UNL d   1      20.980  14.199   1.525  0.00  0.00     0.217 HD
ENDBRANCH  14  18
BRANCH  15  20
ATOM     20  O   UNL d   1      22.408  12.007   1.642  0.00  0.00    -0.353 OA
ATOM     21  C   UNL d   1      22.967  11.183   1.733  0.00  0.00     0.210 C 
ENDBRANCH  15  20
ENDBRANCH   5  12
BRANCH   6  22
ATOM     22  O   UNL d   1      24.976  18.805  -0.645  0.00  0.00    -0.357 OA
ATOM     23  H   UNL d   1      24.379  18.972  -0.659  0.00  0.00     0.218 HD
ENDBRANCH   6  22
BRANCH  11  24
ATOM     24  O   UNL d   1      26.892  16.909  -2.821  0.00  0.00    -0.353 OA
ATOM     25  C   UNL d   1      27.268  16.021  -3.087  0.00  0.00     0.210 C 
ENDBRANCH  11  24
BRANCH   9  26
ATOM     26  O   UNL d   1      26.336  18.692  -2.107  0.00  0.00    -0.351 OA
ATOM     27  C   UNL d   1      25.839  19.222  -2.795  0.00  0.00     0.210 C 
ENDBRANCH   9  26
TORSDOF 6
ENDMDL
