MODEL 1
REMARK VINA RESULT:    -7.468      0.000      0.000
REMARK INTER + INTRA:          -7.141
REMARK INTER:                  -8.976
REMARK INTRA:                   1.835
REMARK UNBOUND:                 1.855
REMARK  5 active torsions:
REMARK  status: ('A' for Active; 'I' for Inactive)
REMARK    1  A    between atoms: O_2  and  C_13 
REMARK    2  A    between atoms: O_3  and  C_19 
REMARK    3  A    between atoms: O_5  and  C_17 
REMARK    4  A    between atoms: O_6  and  C_21 
REMARK    5  A    between atoms: C_8  and  C_10 
ROOT
ATOM      1  O   UNL d   1      10.070  25.227  23.352  0.00  0.00    -0.309 OA
ATOM      2  O   UNL d   1       8.497  26.197  25.715  0.00  0.00    -0.287 OA
ATOM      3  C   UNL d   1       9.281  24.910  24.861  0.00  0.00     0.081 A 
ATOM      4  C   UNL d   1       9.810  26.190  23.419  0.00  0.00     0.090 A 
ATOM      5  C   UNL d   1       9.806  24.587  24.074  0.00  0.00     0.095 A 
ATOM      6  C   UNL d   1       9.021  25.874  24.928  0.00  0.00     0.190 A 
ATOM      7  C   UNL d   1       9.285  26.514  24.206  0.00  0.00     0.094 A 
ATOM      8  C   UNL d   1       8.999  24.255  25.620  0.00  0.00     0.085 A 
ATOM      9  C   UNL d   1      10.084  23.586  23.990  0.00  0.00     0.075 A 
ATOM     10  C   UNL d   1       9.812  22.914  24.738  0.00  0.00     0.071 A 
ATOM     11  C   UNL d   1       9.266  23.250  25.558  0.00  0.00     0.074 A 
ENDROOT
BRANCH   4  12
ATOM     12  C   UNL d   1      10.074  26.830  22.697  0.00  0.00     0.001 A 
ATOM     13  C   UNL d   1       9.405  27.114  22.010  0.00  0.00     0.054 A 
ATOM     14  C   UNL d   1       9.669  27.754  21.289  0.00  0.00     0.102 A 
ATOM     15  C   UNL d   1      10.603  28.110  21.254  0.00  0.00     0.099 A 
ATOM     16  C   UNL d   1      11.272  27.827  21.941  0.00  0.00     0.040 A 
ATOM     17  C   UNL d   1      11.008  27.187  22.663  0.00  0.00     0.017 A 
BRANCH  14  18
ATOM     18  O   UNL d   1       9.000  28.037  20.602  0.00  0.00    -0.353 OA
ATOM     19  C   UNL d   1       8.125  27.558  20.529  0.00  0.00     0.210 C 
ENDBRANCH  14  18
BRANCH  15  20
ATOM     20  O   UNL d   1      10.867  28.750  20.533  0.00  0.00    -0.358 OA
ATOM     21  H   UNL d   1      10.479  29.203  20.363  0.00  0.00     0.217 HD
ENDBRANCH  15  20
ENDBRANCH   4  12
BRANCH   8  22
ATOM     22  O   UNL d   1       8.475  24.590  26.403  0.00  0.00    -0.360 OA
ATOM     23  H   UNL d   1       7.871  24.458  26.451  0.00  0.00     0.217 HD
ENDBRANCH   8  22
BRANCH  10  24
ATOM     24  O   UNL d   1      10.074  21.951  24.668  0.00  0.00    -0.361 OA
ATOM     25  H   UNL d   1      10.614  21.759  24.906  0.00  0.00     0.217 HD
ENDBRANCH  10  24
TORSDOF 5
ENDMDL
MODEL 2
REMARK VINA RESULT:    -7.333     27.658     29.243
REMARK INTER + INTRA:          -6.978
REMARK INTER:                  -9.018
REMARK INTRA:                   2.039
REMARK UNBOUND:                 1.855
REMARK  5 active torsions:
REMARK  status: ('A' for Active; 'I' for Inactive)
REMARK    1  A    between atoms: O_2  and  C_13 
REMARK    2  A    between atoms: O_3  and  C_19 
REMARK    3  A    between atoms: O_5  and  C_17 
REMARK    4  A    between atoms: O_6  and  C_21 
REMARK    5  A    between atoms: C_8  and  C_10 
ROOT
ATOM      1  O   UNL d   1      21.226  16.339  -1.343  0.00  0.00    -0.309 OA
ATOM      2  O   UNL d   1      20.769  15.827  -4.264  0.00  0.00    -0.287 OA
ATOM      3  C   UNL d   1      21.521  15.395  -2.765  0.00  0.00     0.081 A 
ATOM      4  C   UNL d   1      20.626  16.942  -1.869  0.00  0.00     0.090 A 
ATOM      5  C   UNL d   1      21.674  15.565  -1.791  0.00  0.00     0.095 A 
ATOM      6  C   UNL d   1      20.921  15.998  -3.290  0.00  0.00     0.190 A 
ATOM      7  C   UNL d   1      20.473  16.771  -2.842  0.00  0.00     0.094 A 
ATOM      8  C   UNL d   1      21.981  14.593  -3.245  0.00  0.00     0.085 A 
ATOM      9  C   UNL d   1      22.296  14.946  -1.231  0.00  0.00     0.075 A 
ATOM     10  C   UNL d   1      22.766  14.138  -1.691  0.00  0.00     0.071 A 
ATOM     11  C   UNL d   1      22.607  13.960  -2.704  0.00  0.00     0.074 A 
ENDROOT
BRANCH   4  12
ATOM     12  C   UNL d   1      20.178  17.716  -1.421  0.00  0.00     0.001 A 
ATOM     13  C   UNL d   1      20.692  18.291  -0.785  0.00  0.00     0.054 A 
ATOM     14  C   UNL d   1      20.244  19.065  -0.337  0.00  0.00     0.102 A 
ATOM     15  C   UNL d   1      19.282  19.263  -0.524  0.00  0.00     0.099 A 
ATOM     16  C   UNL d   1      18.768  18.687  -1.160  0.00  0.00     0.040 A 
ATOM     17  C   UNL d   1      19.216  17.914  -1.608  0.00  0.00     0.017 A 
BRANCH  14  18
ATOM     18  O   UNL d   1      20.759  19.641   0.299  0.00  0.00    -0.353 OA
ATOM     19  C   UNL d   1      21.677  19.370   0.588  0.00  0.00     0.210 C 
ENDBRANCH  14  18
BRANCH  15  20
ATOM     20  O   UNL d   1      18.834  20.037  -0.076  0.00  0.00    -0.358 OA
ATOM     21  H   UNL d   1      18.216  20.065  -0.052  0.00  0.00     0.217 HD
ENDBRANCH  15  20
ENDBRANCH   4  12
BRANCH   8  22
ATOM     22  O   UNL d   1      21.821  14.432  -4.219  0.00  0.00    -0.360 OA
ATOM     23  H   UNL d   1      21.572  13.897  -4.407  0.00  0.00     0.217 HD
ENDBRANCH   8  22
BRANCH  10  24
ATOM     24  O   UNL d   1      23.365  13.537  -1.161  0.00  0.00    -0.361 OA
ATOM     25  H   UNL d   1      23.575  13.719  -0.607  0.00  0.00     0.217 HD
ENDBRANCH  10  24
TORSDOF 5
ENDMDL
MODEL 3
REMARK VINA RESULT:    -7.224     36.874     39.647
REMARK INTER + INTRA:          -6.847
REMARK INTER:                  -8.716
REMARK INTRA:                   1.868
REMARK UNBOUND:                 1.855
REMARK  5 active torsions:
REMARK  status: ('A' for Active; 'I' for Inactive)
REMARK    1  A    between atoms: O_2  and  C_13 
REMARK    2  A    between atoms: O_3  and  C_19 
REMARK    3  A    between atoms: O_5  and  C_17 
REMARK    4  A    between atoms: O_6  and  C_21 
REMARK    5  A    between atoms: C_8  and  C_10 
ROOT
ATOM      1  O   UNL d   1       5.057  23.462 -15.616  0.00  0.00    -0.309 OA
ATOM      2  O   UNL d   1       6.784  21.564 -14.062  0.00  0.00    -0.287 OA
ATOM      3  C   UNL d   1       5.543  22.771 -14.104  0.00  0.00     0.081 A 
ATOM      4  C   UNL d   1       5.723  22.887 -16.092  0.00  0.00     0.090 A 
ATOM      5  C   UNL d   1       4.967  23.403 -14.622  0.00  0.00     0.095 A 
ATOM      6  C   UNL d   1       6.209  22.196 -14.580  0.00  0.00     0.190 A 
ATOM      7  C   UNL d   1       6.299  22.255 -15.574  0.00  0.00     0.094 A 
ATOM      8  C   UNL d   1       5.460  22.699 -13.068  0.00  0.00     0.085 A 
ATOM      9  C   UNL d   1       4.269  24.008 -14.140  0.00  0.00     0.075 A 
ATOM     10  C   UNL d   1       4.169  23.953 -13.105  0.00  0.00     0.071 A 
ATOM     11  C   UNL d   1       4.768  23.294 -12.566  0.00  0.00     0.074 A 
ENDROOT
BRANCH   4  12
ATOM     12  C   UNL d   1       5.813  22.946 -17.087  0.00  0.00     0.001 A 
ATOM     13  C   UNL d   1       6.336  23.692 -17.498  0.00  0.00     0.054 A 
ATOM     14  C   UNL d   1       6.426  23.750 -18.493  0.00  0.00     0.102 A 
ATOM     15  C   UNL d   1       5.994  23.062 -19.075  0.00  0.00     0.099 A 
ATOM     16  C   UNL d   1       5.471  22.316 -18.663  0.00  0.00     0.040 A 
ATOM     17  C   UNL d   1       5.381  22.257 -17.669  0.00  0.00     0.017 A 
BRANCH  14  18
ATOM     18  O   UNL d   1       6.949  24.497 -18.904  0.00  0.00    -0.353 OA
ATOM     19  C   UNL d   1       7.706  24.914 -18.401  0.00  0.00     0.210 C 
ENDBRANCH  14  18
BRANCH  15  20
ATOM     20  O   UNL d   1       6.084  23.120 -20.069  0.00  0.00    -0.358 OA
ATOM     21  H   UNL d   1       5.623  23.357 -20.409  0.00  0.00     0.217 HD
ENDBRANCH  15  20
ENDBRANCH   4  12
BRANCH   8  22
ATOM     22  O   UNL d   1       6.041  22.063 -12.561  0.00  0.00    -0.360 OA
ATOM     23  H   UNL d   1       5.906  21.924 -11.972  0.00  0.00     0.217 HD
ENDBRANCH   8  22
BRANCH  10  24
ATOM     24  O   UNL d   1       3.502  24.529 -12.633  0.00  0.00    -0.361 OA
ATOM     25  H   UNL d   1       3.602  24.701 -12.046  0.00  0.00     0.217 HD
ENDBRANCH  10  24
TORSDOF 5
ENDMDL
MODEL 4
REMARK VINA RESULT:    -7.193      1.210      5.411
REMARK INTER + INTRA:          -6.810
REMARK INTER:                  -8.648
REMARK INTRA:                   1.838
REMARK UNBOUND:                 1.855
REMARK  5 active torsions:
REMARK  status: ('A' for Active; 'I' for Inactive)
REMARK    1  A    between atoms: O_2  and  C_13 
REMARK    2  A    between atoms: O_3  and  C_19 
REMARK    3  A    between atoms: O_5  and  C_17 
REMARK    4  A    between atoms: O_6  and  C_21 
REMARK    5  A    between atoms: C_8  and  C_10 
ROOT
ATOM      1  O   UNL d   1       9.098  27.220  21.740  0.00  0.00    -0.309 OA
ATOM      2  O   UNL d   1      12.044  27.637  21.361  0.00  0.00    -0.287 OA
ATOM      3  C   UNL d   1      10.431  27.671  20.731  0.00  0.00     0.081 A 
ATOM      4  C   UNL d   1       9.728  27.047  22.496  0.00  0.00     0.090 A 
ATOM      5  C   UNL d   1       9.449  27.532  20.857  0.00  0.00     0.095 A 
ATOM      6  C   UNL d   1      11.062  27.498  21.487  0.00  0.00     0.190 A 
ATOM      7  C   UNL d   1      10.711  27.186  22.370  0.00  0.00     0.094 A 
ATOM      8  C   UNL d   1      10.811  27.995  19.817  0.00  0.00     0.085 A 
ATOM      9  C   UNL d   1       8.779  27.708  20.079  0.00  0.00     0.075 A 
ATOM     10  C   UNL d   1       9.138  28.033  19.156  0.00  0.00     0.071 A 
ATOM     11  C   UNL d   1      10.160  28.177  19.025  0.00  0.00     0.074 A 
ENDROOT
BRANCH   4  12
ATOM     12  C   UNL d   1       9.377  26.735  23.379  0.00  0.00     0.001 A 
ATOM     13  C   UNL d   1       9.462  25.773  23.639  0.00  0.00     0.054 A 
ATOM     14  C   UNL d   1       9.110  25.461  24.522  0.00  0.00     0.102 A 
ATOM     15  C   UNL d   1       8.674  26.111  25.145  0.00  0.00     0.099 A 
ATOM     16  C   UNL d   1       8.590  27.073  24.884  0.00  0.00     0.040 A 
ATOM     17  C   UNL d   1       8.941  27.385  24.002  0.00  0.00     0.017 A 
BRANCH  14  18
ATOM     18  O   UNL d   1       9.195  24.499  24.782  0.00  0.00    -0.353 OA
ATOM     19  C   UNL d   1       9.749  23.878  24.228  0.00  0.00     0.210 C 
ENDBRANCH  14  18
BRANCH  15  20
ATOM     20  O   UNL d   1       8.323  25.799  26.027  0.00  0.00    -0.358 OA
ATOM     21  H   UNL d   1       8.321  25.195  26.164  0.00  0.00     0.217 HD
ENDBRANCH  15  20
ENDBRANCH   4  12
BRANCH   8  22
ATOM     22  O   UNL d   1      11.795  28.131  19.702  0.00  0.00    -0.360 OA
ATOM     23  H   UNL d   1      12.014  28.687  19.539  0.00  0.00     0.217 HD
ENDBRANCH   8  22
BRANCH  10  24
ATOM     24  O   UNL d   1       8.503  28.205  18.402  0.00  0.00    -0.361 OA
ATOM     25  H   UNL d   1       8.418  28.783  18.196  0.00  0.00     0.217 HD
ENDBRANCH  10  24
TORSDOF 5
ENDMDL
MODEL 5
REMARK VINA RESULT:    -7.137      1.002      5.154
REMARK INTER + INTRA:          -6.743
REMARK INTER:                  -8.582
REMARK INTRA:                   1.840
REMARK UNBOUND:                 1.855
REMARK  5 active torsions:
REMARK  status: ('A' for Active; 'I' for Inactive)
REMARK    1  A    between atoms: O_2  and  C_13 
REMARK    2  A    between atoms: O_3  and  C_19 
REMARK    3  A    between atoms: O_5  and  C_17 
REMARK    4  A    between atoms: O_6  and  C_21 
REMARK    5  A    between atoms: C_8  and  C_10 
ROOT
ATOM      1  O   UNL d   1      10.641  26.477  23.241  0.00  0.00    -0.309 OA
ATOM      2  O   UNL d   1       8.371  27.550  21.598  0.00  0.00    -0.287 OA
ATOM      3  C   UNL d   1      10.047  27.573  22.038  0.00  0.00     0.081 A 
ATOM      4  C   UNL d   1       9.723  26.097  23.349  0.00  0.00     0.090 A 
ATOM      5  C   UNL d   1      10.803  27.215  22.586  0.00  0.00     0.095 A 
ATOM      6  C   UNL d   1       9.128  27.192  22.146  0.00  0.00     0.190 A 
ATOM      7  C   UNL d   1       8.966  26.454  22.801  0.00  0.00     0.094 A 
ATOM      8  C   UNL d   1      10.200  28.341  21.352  0.00  0.00     0.085 A 
ATOM      9  C   UNL d   1      11.766  27.601  22.485  0.00  0.00     0.075 A 
ATOM     10  C   UNL d   1      11.942  28.370  21.804  0.00  0.00     0.071 A 
ATOM     11  C   UNL d   1      11.154  28.742  21.234  0.00  0.00     0.074 A 
ENDROOT
BRANCH   4  12
ATOM     12  C   UNL d   1       9.561  25.359  24.004  0.00  0.00     0.001 A 
ATOM     13  C   UNL d   1       9.149  25.561  24.892  0.00  0.00     0.054 A 
ATOM     14  C   UNL d   1       8.987  24.823  25.548  0.00  0.00     0.102 A 
ATOM     15  C   UNL d   1       9.237  23.883  25.315  0.00  0.00     0.099 A 
ATOM     16  C   UNL d   1       9.649  23.682  24.426  0.00  0.00     0.040 A 
ATOM     17  C   UNL d   1       9.811  24.420  23.771  0.00  0.00     0.017 A 
BRANCH  14  18
ATOM     18  O   UNL d   1       8.574  25.025  26.436  0.00  0.00    -0.353 OA
ATOM     19  C   UNL d   1       8.128  25.906  26.592  0.00  0.00     0.210 C 
ENDBRANCH  14  18
BRANCH  15  20
ATOM     20  O   UNL d   1       9.075  23.146  25.970  0.00  0.00    -0.358 OA
ATOM     21  H   UNL d   1       9.247  23.213  26.562  0.00  0.00     0.217 HD
ENDBRANCH  15  20
ENDBRANCH   4  12
BRANCH   8  22
ATOM     22  O   UNL d   1       9.436  28.690  20.810  0.00  0.00    -0.360 OA
ATOM     23  H   UNL d   1       8.995  29.031  21.080  0.00  0.00     0.217 HD
ENDBRANCH   8  22
BRANCH  10  24
ATOM     24  O   UNL d   1      12.862  28.748  21.700  0.00  0.00    -0.361 OA
ATOM     25  H   UNL d   1      13.188  28.631  21.186  0.00  0.00     0.217 HD
ENDBRANCH  10  24
TORSDOF 5
ENDMDL
