MODEL 1
REMARK VINA RESULT:    -7.586      0.000      0.000
REMARK INTER + INTRA:          -7.472
REMARK INTER:                  -8.614
REMARK INTRA:                   1.142
REMARK UNBOUND:                 1.001
REMARK  3 active torsions:
REMARK  status: ('A' for Active; 'I' for Inactive)
REMARK    1  A    between atoms: O_2  and  C_10 
REMARK    2  A    between atoms: O_4  and  C_13 
REMARK    3  A    between atoms: C_7  and  C_9 
ROOT
ATOM      1  O   UNL d   1      20.454  18.908   0.506  0.00  0.00    -0.309 OA
ATOM      2  O   UNL d   1      21.270  16.220  -0.546  0.00  0.00    -0.287 OA
ATOM      3  C   UNL d   1      21.429  17.481   0.629  0.00  0.00     0.081 A 
ATOM      4  C   UNL d   1      21.156  18.377   0.980  0.00  0.00     0.095 A 
ATOM      5  C   UNL d   1      20.023  18.542  -0.319  0.00  0.00     0.090 A 
ATOM      6  C   UNL d   1      20.998  17.116  -0.196  0.00  0.00     0.190 A 
ATOM      7  C   UNL d   1      22.159  16.918   1.113  0.00  0.00     0.085 A 
ATOM      8  C   UNL d   1      20.295  17.646  -0.670  0.00  0.00     0.094 A 
ATOM      9  C   UNL d   1      21.596  18.772   1.839  0.00  0.00     0.075 A 
ATOM     10  C   UNL d   1      22.329  18.225   2.338  0.00  0.00     0.071 A 
ATOM     11  C   UNL d   1      22.612  17.293   1.973  0.00  0.00     0.074 A 
ENDROOT
BRANCH   5  12
ATOM     12  C   UNL d   1      19.320  19.072  -0.793  0.00  0.00    -0.002 A 
ATOM     13  C   UNL d   1      18.430  18.661  -0.988  0.00  0.00     0.014 A 
ATOM     14  C   UNL d   1      17.727  19.191  -1.462  0.00  0.00     0.001 A 
ATOM     15  C   UNL d   1      17.915  20.132  -1.742  0.00  0.00     0.000 A 
ATOM     16  C   UNL d   1      18.805  20.544  -1.547  0.00  0.00     0.001 A 
ATOM     17  C   UNL d   1      19.508  20.014  -1.073  0.00  0.00     0.014 A 
ENDBRANCH   5  12
BRANCH   7  18
ATOM     18  O   UNL d   1      22.423  16.023   0.753  0.00  0.00    -0.360 OA
ATOM     19  H   UNL d   1      22.557  15.560   1.142  0.00  0.00     0.217 HD
ENDBRANCH   7  18
BRANCH  10  20
ATOM     20  O   UNL d   1      22.757  18.595   3.163  0.00  0.00    -0.361 OA
ATOM     21  H   UNL d   1      22.503  18.488   3.718  0.00  0.00     0.217 HD
ENDBRANCH  10  20
TORSDOF 3
ENDMDL
MODEL 2
REMARK VINA RESULT:    -7.498      1.958      3.356
REMARK INTER + INTRA:          -7.374
REMARK INTER:                  -8.440
REMARK INTRA:                   1.066
REMARK UNBOUND:                 1.001
REMARK  3 active torsions:
REMARK  status: ('A' for Active; 'I' for Inactive)
REMARK    1  A    between atoms: O_2  and  C_10 
REMARK    2  A    between atoms: O_4  and  C_13 
REMARK    3  A    between atoms: C_7  and  C_9 
ROOT
ATOM      1  O   UNL d   1      20.284  17.169  -2.099  0.00  0.00    -0.309 OA
ATOM      2  O   UNL d   1      21.750  16.214   0.337  0.00  0.00    -0.287 OA
ATOM      3  C   UNL d   1      21.409  16.083  -1.356  0.00  0.00     0.081 A 
ATOM      4  C   UNL d   1      20.921  16.401  -2.168  0.00  0.00     0.095 A 
ATOM      5  C   UNL d   1      20.136  17.619  -1.219  0.00  0.00     0.090 A 
ATOM      6  C   UNL d   1      21.262  16.532  -0.475  0.00  0.00     0.190 A 
ATOM      7  C   UNL d   1      22.075  15.284  -1.412  0.00  0.00     0.085 A 
ATOM      8  C   UNL d   1      20.625  17.301  -0.406  0.00  0.00     0.094 A 
ATOM      9  C   UNL d   1      21.064  15.943  -3.092  0.00  0.00     0.075 A 
ATOM     10  C   UNL d   1      21.725  15.142  -3.172  0.00  0.00     0.071 A 
ATOM     11  C   UNL d   1      22.234  14.811  -2.326  0.00  0.00     0.074 A 
ENDROOT
BRANCH   5  12
ATOM     12  C   UNL d   1      19.500  18.387  -1.150  0.00  0.00    -0.002 A 
ATOM     13  C   UNL d   1      18.522  18.242  -1.303  0.00  0.00     0.014 A 
ATOM     14  C   UNL d   1      17.886  19.010  -1.234  0.00  0.00     0.001 A 
ATOM     15  C   UNL d   1      18.227  19.924  -1.013  0.00  0.00     0.000 A 
ATOM     16  C   UNL d   1      19.204  20.069  -0.860  0.00  0.00     0.001 A 
ATOM     17  C   UNL d   1      19.841  19.301  -0.929  0.00  0.00     0.014 A 
ENDBRANCH   5  12
BRANCH   7  18
ATOM     18  O   UNL d   1      22.559  14.974  -0.593  0.00  0.00    -0.360 OA
ATOM     19  H   UNL d   1      22.574  14.371  -0.452  0.00  0.00     0.217 HD
ENDBRANCH   7  18
BRANCH  10  20
ATOM     20  O   UNL d   1      21.870  14.695  -4.055  0.00  0.00    -0.361 OA
ATOM     21  H   UNL d   1      22.430  14.708  -4.320  0.00  0.00     0.217 HD
ENDBRANCH  10  20
TORSDOF 3
ENDMDL
MODEL 3
REMARK VINA RESULT:    -7.481     24.639     25.712
REMARK INTER + INTRA:          -7.355
REMARK INTER:                  -8.414
REMARK INTRA:                   1.059
REMARK UNBOUND:                 1.001
REMARK  3 active torsions:
REMARK  status: ('A' for Active; 'I' for Inactive)
REMARK    1  A    between atoms: O_2  and  C_10 
REMARK    2  A    between atoms: O_4  and  C_13 
REMARK    3  A    between atoms: C_7  and  C_9 
ROOT
ATOM      1  O   UNL d   1      10.122  27.771  21.135  0.00  0.00    -0.309 OA
ATOM      2  O   UNL d   1       7.554  26.900  22.418  0.00  0.00    -0.287 OA
ATOM      3  C   UNL d   1       9.281  27.026  22.453  0.00  0.00     0.081 A 
ATOM      4  C   UNL d   1      10.137  27.316  22.025  0.00  0.00     0.095 A 
ATOM      5  C   UNL d   1       9.251  27.936  20.672  0.00  0.00     0.090 A 
ATOM      6  C   UNL d   1       8.410  27.190  21.990  0.00  0.00     0.190 A 
ATOM      7  C   UNL d   1       9.281  26.551  23.380  0.00  0.00     0.085 A 
ATOM      8  C   UNL d   1       8.395  27.646  21.100  0.00  0.00     0.094 A 
ATOM      9  C   UNL d   1      11.052  27.151  22.495  0.00  0.00     0.075 A 
ATOM     10  C   UNL d   1      11.076  26.678  23.422  0.00  0.00     0.071 A 
ATOM     11  C   UNL d   1      10.184  26.376  23.867  0.00  0.00     0.074 A 
ENDROOT
BRANCH   5  12
ATOM     12  C   UNL d   1       9.236  28.391  19.782  0.00  0.00    -0.002 A 
ATOM     13  C   UNL d   1       9.618  27.933  18.980  0.00  0.00     0.014 A 
ATOM     14  C   UNL d   1       9.603  28.388  18.089  0.00  0.00     0.001 A 
ATOM     15  C   UNL d   1       9.206  29.301  18.002  0.00  0.00     0.000 A 
ATOM     16  C   UNL d   1       8.824  29.760  18.804  0.00  0.00     0.001 A 
ATOM     17  C   UNL d   1       8.839  29.305  19.694  0.00  0.00     0.014 A 
ENDBRANCH   5  12
BRANCH   7  18
ATOM     18  O   UNL d   1       8.419  26.265  23.798  0.00  0.00    -0.360 OA
ATOM     19  H   UNL d   1       8.174  25.713  23.657  0.00  0.00     0.217 HD
ENDBRANCH   7  18
BRANCH  10  20
ATOM     20  O   UNL d   1      11.949  26.515  23.882  0.00  0.00    -0.361 OA
ATOM     21  H   UNL d   1      12.314  26.050  23.696  0.00  0.00     0.217 HD
ENDBRANCH  10  20
TORSDOF 3
ENDMDL
MODEL 4
REMARK VINA RESULT:    -7.474     24.413     25.547
REMARK INTER + INTRA:          -7.346
REMARK INTER:                  -8.353
REMARK INTRA:                   1.006
REMARK UNBOUND:                 1.001
REMARK  3 active torsions:
REMARK  status: ('A' for Active; 'I' for Inactive)
REMARK    1  A    between atoms: O_2  and  C_10 
REMARK    2  A    between atoms: O_4  and  C_13 
REMARK    3  A    between atoms: C_7  and  C_9 
ROOT
ATOM      1  O   UNL d   1       9.418  27.461  21.313  0.00  0.00    -0.309 OA
ATOM      2  O   UNL d   1      12.254  27.934  22.168  0.00  0.00    -0.287 OA
ATOM      3  C   UNL d   1      10.698  27.228  22.456  0.00  0.00     0.081 A 
ATOM      4  C   UNL d   1       9.753  27.070  22.170  0.00  0.00     0.095 A 
ATOM      5  C   UNL d   1      10.028  28.009  20.740  0.00  0.00     0.090 A 
ATOM      6  C   UNL d   1      11.308  27.776  21.883  0.00  0.00     0.190 A 
ATOM      7  C   UNL d   1      11.061  26.829  23.346  0.00  0.00     0.085 A 
ATOM      8  C   UNL d   1      10.973  28.167  21.026  0.00  0.00     0.094 A 
ATOM      9  C   UNL d   1       9.105  26.502  22.756  0.00  0.00     0.075 A 
ATOM     10  C   UNL d   1       9.448  26.092  23.650  0.00  0.00     0.071 A 
ATOM     11  C   UNL d   1      10.432  26.257  23.947  0.00  0.00     0.074 A 
ENDROOT
BRANCH   5  12
ATOM     12  C   UNL d   1       9.692  28.399  19.883  0.00  0.00    -0.002 A 
ATOM     13  C   UNL d   1       9.173  29.253  19.892  0.00  0.00     0.014 A 
ATOM     14  C   UNL d   1       8.837  29.643  19.034  0.00  0.00     0.001 A 
ATOM     15  C   UNL d   1       9.021  29.179  18.168  0.00  0.00     0.000 A 
ATOM     16  C   UNL d   1       9.541  28.324  18.159  0.00  0.00     0.001 A 
ATOM     17  C   UNL d   1       9.876  27.934  19.017  0.00  0.00     0.014 A 
ENDBRANCH   5  12
BRANCH   7  18
ATOM     18  O   UNL d   1      12.009  26.993  23.621  0.00  0.00    -0.360 OA
ATOM     19  H   UNL d   1      12.237  26.715  24.126  0.00  0.00     0.217 HD
ENDBRANCH   7  18
BRANCH  10  20
ATOM     20  O   UNL d   1       8.834  25.545  24.220  0.00  0.00    -0.361 OA
ATOM     21  H   UNL d   1       8.358  25.815  24.511  0.00  0.00     0.217 HD
ENDBRANCH  10  20
TORSDOF 3
ENDMDL
MODEL 5
REMARK VINA RESULT:    -7.438     19.860     21.462
REMARK INTER + INTRA:          -7.306
REMARK INTER:                  -8.306
REMARK INTRA:                   0.999
REMARK UNBOUND:                 1.001
REMARK  3 active torsions:
REMARK  status: ('A' for Active; 'I' for Inactive)
REMARK    1  A    between atoms: O_2  and  C_10 
REMARK    2  A    between atoms: O_4  and  C_13 
REMARK    3  A    between atoms: C_7  and  C_9 
ROOT
ATOM      1  O   UNL d   1      20.948  -2.087   7.531  0.00  0.00    -0.309 OA
ATOM      2  O   UNL d   1      19.704   0.292   6.192  0.00  0.00    -0.287 OA
ATOM      3  C   UNL d   1      20.448  -1.269   6.089  0.00  0.00     0.081 A 
ATOM      4  C   UNL d   1      20.863  -2.062   6.535  0.00  0.00     0.095 A 
ATOM      5  C   UNL d   1      20.619  -1.319   8.081  0.00  0.00     0.090 A 
ATOM      6  C   UNL d   1      20.119  -0.501   6.638  0.00  0.00     0.190 A 
ATOM      7  C   UNL d   1      20.353  -1.228   5.052  0.00  0.00     0.085 A 
ATOM      8  C   UNL d   1      20.204  -0.526   7.634  0.00  0.00     0.094 A 
ATOM      9  C   UNL d   1      21.211  -2.869   5.976  0.00  0.00     0.075 A 
ATOM     10  C   UNL d   1      21.126  -2.850   4.938  0.00  0.00     0.071 A 
ATOM     11  C   UNL d   1      20.694  -2.024   4.473  0.00  0.00     0.074 A 
ENDROOT
BRANCH   5  12
ATOM     12  C   UNL d   1      20.704  -1.345   9.077  0.00  0.00    -0.002 A 
ATOM     13  C   UNL d   1      19.979  -1.755   9.630  0.00  0.00     0.014 A 
ATOM     14  C   UNL d   1      20.064  -1.780  10.626  0.00  0.00     0.001 A 
ATOM     15  C   UNL d   1      20.874  -1.395  11.069  0.00  0.00     0.000 A 
ATOM     16  C   UNL d   1      21.599  -0.985  10.515  0.00  0.00     0.001 A 
ATOM     17  C   UNL d   1      21.514  -0.959   9.519  0.00  0.00     0.014 A 
ENDBRANCH   5  12
BRANCH   7  18
ATOM     18  O   UNL d   1      19.937  -0.430   4.617  0.00  0.00    -0.360 OA
ATOM     19  H   UNL d   1      19.436  -0.166   4.869  0.00  0.00     0.217 HD
ENDBRANCH   7  18
BRANCH  10  20
ATOM     20  O   UNL d   1      21.456  -3.620   4.392  0.00  0.00    -0.361 OA
ATOM     21  H   UNL d   1      21.750  -3.515   3.856  0.00  0.00     0.217 HD
ENDBRANCH  10  20
TORSDOF 3
ENDMDL
