MODEL 1
REMARK VINA RESULT:    -8.181      0.000      0.000
REMARK INTER + INTRA:          -5.507
REMARK INTER:                 -10.707
REMARK INTRA:                   5.201
REMARK UNBOUND:                 5.065
REMARK  6 active torsions:
REMARK  status: ('A' for Active; 'I' for Inactive)
REMARK    1  A    between atoms: O_2  and  C_15 
REMARK    2  A    between atoms: O_3  and  C_17 
REMARK    3  A    between atoms: O_4  and  C_11 
REMARK    4  A    between atoms: O_6  and  C_22 
REMARK    5  A    between atoms: O_7  and  C_20 
REMARK    6  A    between atoms: C_10  and  C_13 
ROOT
ATOM      1  O   UNL d   1     -15.637   9.249 -16.769  0.00  0.00    -0.309 OA
ATOM      2  O   UNL d   1     -16.974   9.695 -19.496  0.00  0.00    -0.287 OA
ATOM      3  C   UNL d   1     -16.883   8.819 -17.961  0.00  0.00     0.084 A 
ATOM      4  C   UNL d   1     -16.450   8.670 -17.072  0.00  0.00     0.096 A 
ATOM      5  C   UNL d   1     -15.272   9.991 -17.402  0.00  0.00     0.090 A 
ATOM      6  C   UNL d   1     -17.661   8.256 -18.238  0.00  0.00     0.119 A 
ATOM      7  C   UNL d   1     -16.533   9.555 -18.609  0.00  0.00     0.190 A 
ATOM      8  C   UNL d   1     -16.795   7.959 -16.460  0.00  0.00     0.078 A 
ATOM      9  C   UNL d   1     -18.007   7.545 -17.626  0.00  0.00     0.136 A 
ATOM     10  C   UNL d   1     -15.723  10.146 -18.328  0.00  0.00     0.094 A 
ATOM     11  C   UNL d   1     -17.574   7.396 -16.737  0.00  0.00     0.107 A 
ENDROOT
BRANCH   5  12
ATOM     12  C   UNL d   1     -14.493  10.552 -17.122  0.00  0.00     0.001 A 
ATOM     13  C   UNL d   1     -13.654  10.116 -16.796  0.00  0.00     0.053 A 
ATOM     14  C   UNL d   1     -12.875  10.676 -16.516  0.00  0.00     0.099 A 
ATOM     15  C   UNL d   1     -12.935  11.674 -16.561  0.00  0.00     0.101 A 
ATOM     16  C   UNL d   1     -13.774  12.110 -16.887  0.00  0.00     0.040 A 
ATOM     17  C   UNL d   1     -14.552  11.549 -17.167  0.00  0.00     0.017 A 
BRANCH  14  18
ATOM     18  O   UNL d   1     -12.036  10.241 -16.190  0.00  0.00    -0.358 OA
ATOM     19  H   UNL d   1     -11.510  10.567 -16.154  0.00  0.00     0.217 HD
ENDBRANCH  14  18
BRANCH  15  20
ATOM     20  O   UNL d   1     -12.156  12.235 -16.281  0.00  0.00    -0.353 OA
ATOM     21  C   UNL d   1     -12.149  13.215 -16.478  0.00  0.00     0.210 C 
ENDBRANCH  15  20
ENDBRANCH   5  12
BRANCH   6  22
ATOM     22  O   UNL d   1     -18.094   8.404 -19.127  0.00  0.00    -0.357 OA
ATOM     23  H   UNL d   1     -17.986   8.011 -19.594  0.00  0.00     0.218 HD
ENDBRANCH   6  22
BRANCH  11  24
ATOM     24  O   UNL d   1     -17.920   6.685 -16.125  0.00  0.00    -0.353 OA
ATOM     25  C   UNL d   1     -17.467   6.515 -15.249  0.00  0.00     0.210 C 
ENDBRANCH  11  24
BRANCH   9  26
ATOM     26  O   UNL d   1     -18.786   6.982 -17.903  0.00  0.00    -0.351 OA
ATOM     27  C   UNL d   1     -19.701   7.382 -17.948  0.00  0.00     0.210 C 
ENDBRANCH   9  26
TORSDOF 6
ENDMDL
MODEL 2
REMARK VINA RESULT:    -8.172      3.109      4.854
REMARK INTER + INTRA:          -5.495
REMARK INTER:                 -10.582
REMARK INTRA:                   5.087
REMARK UNBOUND:                 5.065
REMARK  6 active torsions:
REMARK  status: ('A' for Active; 'I' for Inactive)
REMARK    1  A    between atoms: O_2  and  C_15 
REMARK    2  A    between atoms: O_3  and  C_17 
REMARK    3  A    between atoms: O_4  and  C_11 
REMARK    4  A    between atoms: O_6  and  C_22 
REMARK    5  A    between atoms: O_7  and  C_20 
REMARK    6  A    between atoms: C_10  and  C_13 
ROOT
ATOM      1  O   UNL d   1     -16.637  11.988 -18.383  0.00  0.00    -0.309 OA
ATOM      2  O   UNL d   1     -15.505   9.195 -17.804  0.00  0.00    -0.287 OA
ATOM      3  C   UNL d   1     -16.280  10.680 -17.235  0.00  0.00     0.084 A 
ATOM      4  C   UNL d   1     -16.650  11.591 -17.420  0.00  0.00     0.096 A 
ATOM      5  C   UNL d   1     -16.234  11.429 -19.164  0.00  0.00     0.090 A 
ATOM      6  C   UNL d   1     -16.300  10.312 -16.306  0.00  0.00     0.119 A 
ATOM      7  C   UNL d   1     -15.872  10.104 -18.001  0.00  0.00     0.190 A 
ATOM      8  C   UNL d   1     -17.039  12.133 -16.675  0.00  0.00     0.078 A 
ATOM      9  C   UNL d   1     -16.689  10.854 -15.561  0.00  0.00     0.136 A 
ATOM     10  C   UNL d   1     -15.848  10.480 -18.971  0.00  0.00     0.094 A 
ATOM     11  C   UNL d   1     -17.059  11.765 -15.746  0.00  0.00     0.107 A 
ENDROOT
BRANCH   5  12
ATOM     12  C   UNL d   1     -16.216  11.800 -20.092  0.00  0.00     0.001 A 
ATOM     13  C   UNL d   1     -15.601  12.557 -20.316  0.00  0.00     0.053 A 
ATOM     14  C   UNL d   1     -15.583  12.929 -21.244  0.00  0.00     0.099 A 
ATOM     15  C   UNL d   1     -16.180  12.544 -21.948  0.00  0.00     0.101 A 
ATOM     16  C   UNL d   1     -16.795  11.788 -21.724  0.00  0.00     0.040 A 
ATOM     17  C   UNL d   1     -16.813  11.416 -20.796  0.00  0.00     0.017 A 
BRANCH  14  18
ATOM     18  O   UNL d   1     -14.969  13.685 -21.469  0.00  0.00    -0.358 OA
ATOM     19  H   UNL d   1     -14.713  13.720 -22.032  0.00  0.00     0.217 HD
ENDBRANCH  14  18
BRANCH  15  20
ATOM     20  O   UNL d   1     -16.163  12.915 -22.876  0.00  0.00    -0.353 OA
ATOM     21  C   UNL d   1     -16.818  12.590 -23.558  0.00  0.00     0.210 C 
ENDBRANCH  15  20
ENDBRANCH   5  12
BRANCH   6  22
ATOM     22  O   UNL d   1     -15.930   9.401 -16.121  0.00  0.00    -0.357 OA
ATOM     23  H   UNL d   1     -16.141   9.073 -15.640  0.00  0.00     0.218 HD
ENDBRANCH   6  22
BRANCH  11  24
ATOM     24  O   UNL d   1     -17.448  12.307 -15.001  0.00  0.00    -0.353 OA
ATOM     25  C   UNL d   1     -17.421  13.306 -15.043  0.00  0.00     0.210 C 
ENDBRANCH  11  24
BRANCH   9  26
ATOM     26  O   UNL d   1     -16.708  10.486 -14.632  0.00  0.00    -0.351 OA
ATOM     27  C   UNL d   1     -17.394   9.804 -14.378  0.00  0.00     0.210 C 
ENDBRANCH   9  26
TORSDOF 6
ENDMDL
MODEL 3
REMARK VINA RESULT:    -8.101      3.869      5.595
REMARK INTER + INTRA:          -5.404
REMARK INTER:                 -10.618
REMARK INTRA:                   5.213
REMARK UNBOUND:                 5.065
REMARK  6 active torsions:
REMARK  status: ('A' for Active; 'I' for Inactive)
REMARK    1  A    between atoms: O_2  and  C_15 
REMARK    2  A    between atoms: O_3  and  C_17 
REMARK    3  A    between atoms: O_4  and  C_11 
REMARK    4  A    between atoms: O_6  and  C_22 
REMARK    5  A    between atoms: O_7  and  C_20 
REMARK    6  A    between atoms: C_10  and  C_13 
ROOT
ATOM      1  O   UNL d   1     -20.045   7.205 -18.398  0.00  0.00    -0.309 OA
ATOM      2  O   UNL d   1     -18.474   7.893 -20.943  0.00  0.00    -0.287 OA
ATOM      3  C   UNL d   1     -20.015   7.562 -20.138  0.00  0.00     0.084 A 
ATOM      4  C   UNL d   1     -20.530   7.337 -19.311  0.00  0.00     0.096 A 
ATOM      5  C   UNL d   1     -19.010   7.307 -18.347  0.00  0.00     0.090 A 
ATOM      6  C   UNL d   1     -20.494   7.686 -21.007  0.00  0.00     0.119 A 
ATOM      7  C   UNL d   1     -18.979   7.669 -20.110  0.00  0.00     0.190 A 
ATOM      8  C   UNL d   1     -21.524   7.237 -19.353  0.00  0.00     0.078 A 
ATOM      9  C   UNL d   1     -21.488   7.586 -21.049  0.00  0.00     0.136 A 
ATOM     10  C   UNL d   1     -18.473   7.541 -19.209  0.00  0.00     0.094 A 
ATOM     11  C   UNL d   1     -22.003   7.362 -20.222  0.00  0.00     0.107 A 
ENDROOT
BRANCH   5  12
ATOM     12  C   UNL d   1     -18.534   7.182 -17.477  0.00  0.00     0.001 A 
ATOM     13  C   UNL d   1     -18.718   6.373 -16.919  0.00  0.00     0.053 A 
ATOM     14  C   UNL d   1     -18.242   6.247 -16.048  0.00  0.00     0.099 A 
ATOM     15  C   UNL d   1     -17.583   6.931 -15.735  0.00  0.00     0.101 A 
ATOM     16  C   UNL d   1     -17.399   7.740 -16.294  0.00  0.00     0.040 A 
ATOM     17  C   UNL d   1     -17.875   7.865 -17.164  0.00  0.00     0.017 A 
BRANCH  14  18
ATOM     18  O   UNL d   1     -18.426   5.438 -15.489  0.00  0.00    -0.358 OA
ATOM     19  H   UNL d   1     -18.258   5.428 -14.893  0.00  0.00     0.217 HD
ENDBRANCH  14  18
BRANCH  15  20
ATOM     20  O   UNL d   1     -17.107   6.806 -14.865  0.00  0.00    -0.353 OA
ATOM     21  C   UNL d   1     -16.748   7.598 -14.373  0.00  0.00     0.210 C 
ENDBRANCH  15  20
ENDBRANCH   5  12
BRANCH   6  22
ATOM     22  O   UNL d   1     -19.978   7.911 -21.834  0.00  0.00    -0.357 OA
ATOM     23  H   UNL d   1     -19.405   8.142 -21.789  0.00  0.00     0.218 HD
ENDBRANCH   6  22
BRANCH  11  24
ATOM     24  O   UNL d   1     -22.997   7.262 -20.264  0.00  0.00    -0.353 OA
ATOM     25  C   UNL d   1     -23.506   6.978 -19.451  0.00  0.00     0.210 C 
ENDBRANCH  11  24
BRANCH   9  26
ATOM     26  O   UNL d   1     -21.967   7.711 -21.918  0.00  0.00    -0.351 OA
ATOM     27  C   UNL d   1     -22.122   8.631 -22.276  0.00  0.00     0.210 C 
ENDBRANCH   9  26
TORSDOF 6
ENDMDL
MODEL 4
REMARK VINA RESULT:    -8.091      2.300      6.046
REMARK INTER + INTRA:          -5.392
REMARK INTER:                 -10.587
REMARK INTRA:                   5.195
REMARK UNBOUND:                 5.065
REMARK  6 active torsions:
REMARK  status: ('A' for Active; 'I' for Inactive)
REMARK    1  A    between atoms: O_2  and  C_15 
REMARK    2  A    between atoms: O_3  and  C_17 
REMARK    3  A    between atoms: O_4  and  C_11 
REMARK    4  A    between atoms: O_6  and  C_22 
REMARK    5  A    between atoms: O_7  and  C_20 
REMARK    6  A    between atoms: C_10  and  C_13 
ROOT
ATOM      1  O   UNL d   1     -18.079   8.097 -18.226  0.00  0.00    -0.309 OA
ATOM      2  O   UNL d   1     -19.118   5.809 -16.464  0.00  0.00    -0.287 OA
ATOM      3  C   UNL d   1     -18.073   7.221 -16.681  0.00  0.00     0.084 A 
ATOM      4  C   UNL d   1     -17.732   7.967 -17.252  0.00  0.00     0.096 A 
ATOM      5  C   UNL d   1     -18.791   7.440 -18.610  0.00  0.00     0.090 A 
ATOM      6  C   UNL d   1     -17.731   7.108 -15.748  0.00  0.00     0.119 A 
ATOM      7  C   UNL d   1     -18.784   6.552 -17.044  0.00  0.00     0.190 A 
ATOM      8  C   UNL d   1     -17.049   8.602 -16.891  0.00  0.00     0.078 A 
ATOM      9  C   UNL d   1     -17.047   7.743 -15.387  0.00  0.00     0.136 A 
ATOM     10  C   UNL d   1     -19.146   6.662 -18.014  0.00  0.00     0.094 A 
ATOM     11  C   UNL d   1     -16.706   8.489 -15.958  0.00  0.00     0.107 A 
ENDROOT
BRANCH   5  12
ATOM     12  C   UNL d   1     -19.131   7.556 -19.543  0.00  0.00     0.001 A 
ATOM     13  C   UNL d   1     -18.488   7.705 -20.294  0.00  0.00     0.053 A 
ATOM     14  C   UNL d   1     -18.827   7.820 -21.228  0.00  0.00     0.099 A 
ATOM     15  C   UNL d   1     -19.810   7.786 -21.410  0.00  0.00     0.101 A 
ATOM     16  C   UNL d   1     -20.453   7.637 -20.658  0.00  0.00     0.040 A 
ATOM     17  C   UNL d   1     -20.113   7.522 -19.725  0.00  0.00     0.017 A 
BRANCH  14  18
ATOM     18  O   UNL d   1     -18.185   7.970 -21.980  0.00  0.00    -0.358 OA
ATOM     19  H   UNL d   1     -18.049   7.507 -22.368  0.00  0.00     0.217 HD
ENDBRANCH  14  18
BRANCH  15  20
ATOM     20  O   UNL d   1     -20.150   7.901 -22.343  0.00  0.00    -0.353 OA
ATOM     21  C   UNL d   1     -21.126   7.803 -22.535  0.00  0.00     0.210 C 
ENDBRANCH  15  20
ENDBRANCH   5  12
BRANCH   6  22
ATOM     22  O   UNL d   1     -18.071   6.362 -15.177  0.00  0.00    -0.357 OA
ATOM     23  H   UNL d   1     -18.134   5.793 -15.415  0.00  0.00     0.218 HD
ENDBRANCH   6  22
BRANCH  11  24
ATOM     24  O   UNL d   1     -16.023   9.124 -15.596  0.00  0.00    -0.353 OA
ATOM     25  C   UNL d   1     -15.533   9.737 -16.216  0.00  0.00     0.210 C 
ENDBRANCH  11  24
BRANCH   9  26
ATOM     26  O   UNL d   1     -16.705   7.630 -14.454  0.00  0.00    -0.351 OA
ATOM     27  C   UNL d   1     -17.252   7.948 -13.679  0.00  0.00     0.210 C 
ENDBRANCH   9  26
TORSDOF 6
ENDMDL
MODEL 5
REMARK VINA RESULT:    -8.001      0.968      2.069
REMARK INTER + INTRA:          -5.274
REMARK INTER:                 -10.304
REMARK INTRA:                   5.030
REMARK UNBOUND:                 5.065
REMARK  6 active torsions:
REMARK  status: ('A' for Active; 'I' for Inactive)
REMARK    1  A    between atoms: O_2  and  C_15 
REMARK    2  A    between atoms: O_3  and  C_17 
REMARK    3  A    between atoms: O_4  and  C_11 
REMARK    4  A    between atoms: O_6  and  C_22 
REMARK    5  A    between atoms: O_7  and  C_20 
REMARK    6  A    between atoms: C_10  and  C_13 
ROOT
ATOM      1  O   UNL d   1     -15.823   9.562 -17.432  0.00  0.00    -0.309 OA
ATOM      2  O   UNL d   1     -16.898   8.570 -14.733  0.00  0.00    -0.287 OA
ATOM      3  C   UNL d   1     -17.000   8.612 -16.499  0.00  0.00     0.084 A 
ATOM      4  C   UNL d   1     -16.653   8.933 -17.380  0.00  0.00     0.096 A 
ATOM      5  C   UNL d   1     -15.350   9.859 -16.553  0.00  0.00     0.090 A 
ATOM      6  C   UNL d   1     -17.797   8.010 -16.465  0.00  0.00     0.119 A 
ATOM      7  C   UNL d   1     -16.542   8.897 -15.608  0.00  0.00     0.190 A 
ATOM      8  C   UNL d   1     -17.103   8.652 -18.228  0.00  0.00     0.078 A 
ATOM      9  C   UNL d   1     -18.247   7.728 -17.313  0.00  0.00     0.136 A 
ATOM     10  C   UNL d   1     -15.711   9.525 -15.635  0.00  0.00     0.094 A 
ATOM     11  C   UNL d   1     -17.900   8.049 -18.194  0.00  0.00     0.107 A 
ENDROOT
BRANCH   5  12
ATOM     12  C   UNL d   1     -14.553  10.462 -16.590  0.00  0.00     0.001 A 
ATOM     13  C   UNL d   1     -13.631  10.075 -16.557  0.00  0.00     0.053 A 
ATOM     14  C   UNL d   1     -12.834  10.677 -16.594  0.00  0.00     0.099 A 
ATOM     15  C   UNL d   1     -12.958  11.667 -16.665  0.00  0.00     0.101 A 
ATOM     16  C   UNL d   1     -13.880  12.054 -16.698  0.00  0.00     0.040 A 
ATOM     17  C   UNL d   1     -14.676  11.451 -16.661  0.00  0.00     0.017 A 
BRANCH  14  18
ATOM     18  O   UNL d   1     -11.912  10.291 -16.561  0.00  0.00    -0.358 OA
ATOM     19  H   UNL d   1     -11.721   9.905 -17.006  0.00  0.00     0.217 HD
ENDBRANCH  14  18
BRANCH  15  20
ATOM     20  O   UNL d   1     -12.161  12.269 -16.702  0.00  0.00    -0.353 OA
ATOM     21  C   UNL d   1     -12.283  13.262 -16.683  0.00  0.00     0.210 C 
ENDBRANCH  15  20
ENDBRANCH   5  12
BRANCH   6  22
ATOM     22  O   UNL d   1     -18.145   7.689 -15.584  0.00  0.00    -0.357 OA
ATOM     23  H   UNL d   1     -18.318   7.097 -15.516  0.00  0.00     0.218 HD
ENDBRANCH   6  22
BRANCH  11  24
ATOM     24  O   UNL d   1     -18.350   7.767 -19.041  0.00  0.00    -0.353 OA
ATOM     25  C   UNL d   1     -18.218   8.299 -19.878  0.00  0.00     0.210 C 
ENDBRANCH  11  24
BRANCH   9  26
ATOM     26  O   UNL d   1     -19.045   7.125 -17.279  0.00  0.00    -0.351 OA
ATOM     27  C   UNL d   1     -18.929   6.154 -17.069  0.00  0.00     0.210 C 
ENDBRANCH   9  26
TORSDOF 6
ENDMDL
