MODEL 1
REMARK VINA RESULT:    -8.525      0.000      0.000
REMARK INTER + INTRA:          -8.522
REMARK INTER:                  -9.697
REMARK INTRA:                   1.175
REMARK UNBOUND:                 1.000
REMARK  3 active torsions:
REMARK  status: ('A' for Active; 'I' for Inactive)
REMARK    1  A    between atoms: O_2  and  C_10 
REMARK    2  A    between atoms: O_4  and  C_13 
REMARK    3  A    between atoms: C_7  and  C_9 
ROOT
ATOM      1  O   UNL d   1     -18.110   7.893 -17.541  0.00  0.00    -0.309 OA
ATOM      2  O   UNL d   1     -18.840   5.477 -15.920  0.00  0.00    -0.287 OA
ATOM      3  C   UNL d   1     -17.934   6.941 -16.105  0.00  0.00     0.081 A 
ATOM      4  C   UNL d   1     -17.690   7.746 -16.645  0.00  0.00     0.095 A 
ATOM      5  C   UNL d   1     -18.773   7.234 -17.897  0.00  0.00     0.090 A 
ATOM      6  C   UNL d   1     -18.597   6.282 -16.460  0.00  0.00     0.190 A 
ATOM      7  C   UNL d   1     -17.505   6.775 -15.171  0.00  0.00     0.085 A 
ATOM      8  C   UNL d   1     -19.016   6.429 -17.356  0.00  0.00     0.094 A 
ATOM      9  C   UNL d   1     -17.001   8.442 -16.289  0.00  0.00     0.075 A 
ATOM     10  C   UNL d   1     -16.560   8.296 -15.356  0.00  0.00     0.071 A 
ATOM     11  C   UNL d   1     -16.814   7.457 -14.794  0.00  0.00     0.074 A 
ENDROOT
BRANCH   5  12
ATOM     12  C   UNL d   1     -19.193   7.381 -18.792  0.00  0.00    -0.002 A 
ATOM     13  C   UNL d   1     -18.621   7.603 -19.582  0.00  0.00     0.014 A 
ATOM     14  C   UNL d   1     -19.040   7.749 -20.478  0.00  0.00     0.001 A 
ATOM     15  C   UNL d   1     -20.032   7.674 -20.584  0.00  0.00     0.000 A 
ATOM     16  C   UNL d   1     -20.604   7.453 -19.794  0.00  0.00     0.001 A 
ATOM     17  C   UNL d   1     -20.184   7.306 -18.898  0.00  0.00     0.014 A 
ENDBRANCH   5  12
BRANCH   7  18
ATOM     18  O   UNL d   1     -17.756   5.966 -14.639  0.00  0.00    -0.360 OA
ATOM     19  H   UNL d   1     -17.588   5.923 -14.044  0.00  0.00     0.217 HD
ENDBRANCH   7  18
BRANCH  10  20
ATOM     20  O   UNL d   1     -15.897   8.957 -15.005  0.00  0.00    -0.361 OA
ATOM     21  H   UNL d   1     -15.688   8.906 -14.423  0.00  0.00     0.217 HD
ENDBRANCH  10  20
TORSDOF 3
ENDMDL
MODEL 2
REMARK VINA RESULT:    -8.175     29.849     30.926
REMARK INTER + INTRA:          -8.131
REMARK INTER:                  -9.150
REMARK INTRA:                   1.018
REMARK UNBOUND:                 1.000
REMARK  3 active torsions:
REMARK  status: ('A' for Active; 'I' for Inactive)
REMARK    1  A    between atoms: O_2  and  C_10 
REMARK    2  A    between atoms: O_4  and  C_13 
REMARK    3  A    between atoms: C_7  and  C_9 
ROOT
ATOM      1  O   UNL d   1       6.579   2.901 -34.556  0.00  0.00    -0.309 OA
ATOM      2  O   UNL d   1       6.776   5.877 -34.239  0.00  0.00    -0.287 OA
ATOM      3  C   UNL d   1       5.845   4.468 -34.621  0.00  0.00     0.081 A 
ATOM      4  C   UNL d   1       5.779   3.476 -34.726  0.00  0.00     0.095 A 
ATOM      5  C   UNL d   1       7.445   3.318 -34.279  0.00  0.00     0.090 A 
ATOM      6  C   UNL d   1       6.710   4.885 -34.344  0.00  0.00     0.190 A 
ATOM      7  C   UNL d   1       5.020   5.079 -34.795  0.00  0.00     0.085 A 
ATOM      8  C   UNL d   1       7.510   4.310 -34.173  0.00  0.00     0.094 A 
ATOM      9  C   UNL d   1       4.884   3.026 -35.014  0.00  0.00     0.075 A 
ATOM     10  C   UNL d   1       4.046   3.619 -35.194  0.00  0.00     0.071 A 
ATOM     11  C   UNL d   1       4.115   4.652 -35.084  0.00  0.00     0.074 A 
ENDROOT
BRANCH   5  12
ATOM     12  C   UNL d   1       8.245   2.743 -34.108  0.00  0.00    -0.002 A 
ATOM     13  C   UNL d   1       8.968   2.676 -34.795  0.00  0.00     0.014 A 
ATOM     14  C   UNL d   1       9.768   2.101 -34.624  0.00  0.00     0.001 A 
ATOM     15  C   UNL d   1       9.845   1.593 -33.766  0.00  0.00     0.000 A 
ATOM     16  C   UNL d   1       9.122   1.660 -33.079  0.00  0.00     0.001 A 
ATOM     17  C   UNL d   1       8.321   2.235 -33.250  0.00  0.00     0.014 A 
ENDBRANCH   5  12
BRANCH   7  18
ATOM     18  O   UNL d   1       5.097   6.070 -34.687  0.00  0.00    -0.360 OA
ATOM     19  H   UNL d   1       5.563   6.310 -34.356  0.00  0.00     0.217 HD
ENDBRANCH   7  18
BRANCH  10  20
ATOM     20  O   UNL d   1       3.182   3.198 -35.470  0.00  0.00    -0.361 OA
ATOM     21  H   UNL d   1       3.171   2.605 -35.652  0.00  0.00     0.217 HD
ENDBRANCH  10  20
TORSDOF 3
ENDMDL
MODEL 3
REMARK VINA RESULT:    -8.116      1.987      3.659
REMARK INTER + INTRA:          -8.065
REMARK INTER:                  -9.077
REMARK INTRA:                   1.012
REMARK UNBOUND:                 1.000
REMARK  3 active torsions:
REMARK  status: ('A' for Active; 'I' for Inactive)
REMARK    1  A    between atoms: O_2  and  C_10 
REMARK    2  A    between atoms: O_4  and  C_13 
REMARK    3  A    between atoms: C_7  and  C_9 
ROOT
ATOM      1  O   UNL d   1     -16.275   8.575 -17.059  0.00  0.00    -0.309 OA
ATOM      2  O   UNL d   1     -16.635  10.112 -14.508  0.00  0.00    -0.287 OA
ATOM      3  C   UNL d   1     -15.708   9.758 -15.928  0.00  0.00     0.081 A 
ATOM      4  C   UNL d   1     -15.588   9.245 -16.778  0.00  0.00     0.095 A 
ATOM      5  C   UNL d   1     -17.081   8.416 -16.489  0.00  0.00     0.090 A 
ATOM      6  C   UNL d   1     -16.515   9.600 -15.358  0.00  0.00     0.190 A 
ATOM      7  C   UNL d   1     -15.002  10.459 -15.623  0.00  0.00     0.085 A 
ATOM      8  C   UNL d   1     -17.201   8.929 -15.639  0.00  0.00     0.094 A 
ATOM      9  C   UNL d   1     -14.753   9.399 -17.382  0.00  0.00     0.075 A 
ATOM     10  C   UNL d   1     -14.034  10.096 -17.096  0.00  0.00     0.071 A 
ATOM     11  C   UNL d   1     -14.159  10.630 -16.211  0.00  0.00     0.074 A 
ENDROOT
BRANCH   5  12
ATOM     12  C   UNL d   1     -17.768   7.746 -16.770  0.00  0.00    -0.002 A 
ATOM     13  C   UNL d   1     -18.446   7.985 -17.465  0.00  0.00     0.014 A 
ATOM     14  C   UNL d   1     -19.132   7.314 -17.746  0.00  0.00     0.001 A 
ATOM     15  C   UNL d   1     -19.141   6.404 -17.331  0.00  0.00     0.000 A 
ATOM     16  C   UNL d   1     -18.463   6.165 -16.636  0.00  0.00     0.001 A 
ATOM     17  C   UNL d   1     -17.777   6.836 -16.355  0.00  0.00     0.014 A 
ENDBRANCH   5  12
BRANCH   7  18
ATOM     18  O   UNL d   1     -15.132  10.966 -14.771  0.00  0.00    -0.360 OA
ATOM     19  H   UNL d   1     -14.706  11.376 -14.586  0.00  0.00     0.217 HD
ENDBRANCH   7  18
BRANCH  10  20
ATOM     20  O   UNL d   1     -13.229  10.251 -17.669  0.00  0.00    -0.361 OA
ATOM     21  H   UNL d   1     -12.662  10.152 -17.439  0.00  0.00     0.217 HD
ENDBRANCH  10  20
TORSDOF 3
ENDMDL
MODEL 4
REMARK VINA RESULT:    -7.994     20.646     22.901
REMARK INTER + INTRA:          -7.929
REMARK INTER:                  -9.093
REMARK INTRA:                   1.164
REMARK UNBOUND:                 1.000
REMARK  3 active torsions:
REMARK  status: ('A' for Active; 'I' for Inactive)
REMARK    1  A    between atoms: O_2  and  C_10 
REMARK    2  A    between atoms: O_4  and  C_13 
REMARK    3  A    between atoms: C_7  and  C_9 
ROOT
ATOM      1  O   UNL d   1      -9.694   9.851 -37.388  0.00  0.00    -0.309 OA
ATOM      2  O   UNL d   1      -7.405   8.314 -38.570  0.00  0.00    -0.287 OA
ATOM      3  C   UNL d   1      -9.080   8.757 -38.582  0.00  0.00     0.081 A 
ATOM      4  C   UNL d   1      -9.843   9.269 -38.188  0.00  0.00     0.095 A 
ATOM      5  C   UNL d   1      -8.783   9.921 -36.982  0.00  0.00     0.090 A 
ATOM      6  C   UNL d   1      -8.168   8.826 -38.176  0.00  0.00     0.190 A 
ATOM      7  C   UNL d   1      -9.219   8.147 -39.414  0.00  0.00     0.085 A 
ATOM      8  C   UNL d   1      -8.020   9.408 -37.376  0.00  0.00     0.094 A 
ATOM      9  C   UNL d   1     -10.798   9.208 -38.599  0.00  0.00     0.075 A 
ATOM     10  C   UNL d   1     -10.960   8.603 -39.432  0.00  0.00     0.071 A 
ATOM     11  C   UNL d   1     -10.166   8.070 -39.842  0.00  0.00     0.074 A 
ENDROOT
BRANCH   5  12
ATOM     12  C   UNL d   1      -8.634  10.502 -36.183  0.00  0.00    -0.002 A 
ATOM     13  C   UNL d   1      -7.889  11.169 -36.181  0.00  0.00     0.014 A 
ATOM     14  C   UNL d   1      -7.740  11.751 -35.381  0.00  0.00     0.001 A 
ATOM     15  C   UNL d   1      -8.338  11.666 -34.584  0.00  0.00     0.000 A 
ATOM     16  C   UNL d   1      -9.083  11.000 -34.586  0.00  0.00     0.001 A 
ATOM     17  C   UNL d   1      -9.232  10.418 -35.385  0.00  0.00     0.014 A 
ENDBRANCH   5  12
BRANCH   7  18
ATOM     18  O   UNL d   1      -8.449   7.639 -39.800  0.00  0.00    -0.360 OA
ATOM     19  H   UNL d   1      -7.941   7.942 -39.987  0.00  0.00     0.217 HD
ENDBRANCH   7  18
BRANCH  10  20
ATOM     20  O   UNL d   1     -11.873   8.537 -39.835  0.00  0.00    -0.361 OA
ATOM     21  H   UNL d   1     -12.373   8.526 -39.468  0.00  0.00     0.217 HD
ENDBRANCH  10  20
TORSDOF 3
ENDMDL
MODEL 5
REMARK VINA RESULT:    -7.955      7.358      9.562
REMARK INTER + INTRA:          -7.885
REMARK INTER:                  -8.885
REMARK INTRA:                   1.000
REMARK UNBOUND:                 1.000
REMARK  3 active torsions:
REMARK  status: ('A' for Active; 'I' for Inactive)
REMARK    1  A    between atoms: O_2  and  C_10 
REMARK    2  A    between atoms: O_4  and  C_13 
REMARK    3  A    between atoms: C_7  and  C_9 
ROOT
ATOM      1  O   UNL d   1     -19.794   5.033  -8.558  0.00  0.00    -0.309 OA
ATOM      2  O   UNL d   1     -19.702   5.794 -11.458  0.00  0.00    -0.287 OA
ATOM      3  C   UNL d   1     -20.386   4.852 -10.175  0.00  0.00     0.081 A 
ATOM      4  C   UNL d   1     -20.417   4.599  -9.209  0.00  0.00     0.095 A 
ATOM      5  C   UNL d   1     -19.141   5.721  -8.873  0.00  0.00     0.090 A 
ATOM      6  C   UNL d   1     -19.733   5.541 -10.491  0.00  0.00     0.190 A 
ATOM      7  C   UNL d   1     -21.028   4.409 -10.864  0.00  0.00     0.085 A 
ATOM      8  C   UNL d   1     -19.110   5.975  -9.840  0.00  0.00     0.094 A 
ATOM      9  C   UNL d   1     -21.092   3.883  -8.864  0.00  0.00     0.075 A 
ATOM     10  C   UNL d   1     -21.743   3.427  -9.536  0.00  0.00     0.071 A 
ATOM     11  C   UNL d   1     -21.712   3.691 -10.543  0.00  0.00     0.074 A 
ENDROOT
BRANCH   5  12
ATOM     12  C   UNL d   1     -18.518   6.155  -8.223  0.00  0.00    -0.002 A 
ATOM     13  C   UNL d   1     -18.811   6.964  -7.714  0.00  0.00     0.014 A 
ATOM     14  C   UNL d   1     -18.189   7.399  -7.063  0.00  0.00     0.001 A 
ATOM     15  C   UNL d   1     -17.273   7.023  -6.921  0.00  0.00     0.000 A 
ATOM     16  C   UNL d   1     -16.979   6.214  -7.429  0.00  0.00     0.001 A 
ATOM     17  C   UNL d   1     -17.602   5.780  -8.080  0.00  0.00     0.014 A 
ENDBRANCH   5  12
BRANCH   7  18
ATOM     18  O   UNL d   1     -20.989   4.670 -11.829  0.00  0.00    -0.360 OA
ATOM     19  H   UNL d   1     -20.469   4.911 -12.063  0.00  0.00     0.217 HD
ENDBRANCH   7  18
BRANCH  10  20
ATOM     20  O   UNL d   1     -22.395   2.739  -9.216  0.00  0.00    -0.361 OA
ATOM     21  H   UNL d   1     -22.263   2.136  -9.275  0.00  0.00     0.217 HD
ENDBRANCH  10  20
TORSDOF 3
ENDMDL
