MODEL 1
REMARK VINA RESULT:    -9.506      0.000      0.000
REMARK INTER + INTRA:          -1.949
REMARK INTER:                 -12.477
REMARK INTRA:                  10.528
REMARK UNBOUND:                10.336
REMARK  5 active torsions:
REMARK  status: ('A' for Active; 'I' for Inactive)
REMARK    1  A    between atoms: C_6  and  C_13 
REMARK    2  A    between atoms: C_13  and  C_19 
REMARK    3  A    between atoms: C_19  and  C_24 
REMARK    4  A    between atoms: C_24  and  C_25 
REMARK    5  A    between atoms: C_25  and  C_26 
ROOT
ATOM      1  O   UNL d   1     -13.345   1.966 -35.648  0.00  0.00    -0.293 OA
ATOM      2  C   UNL d   1      -9.811  -0.439 -40.135  0.00  0.00    -0.036 A 
ATOM      3  C   UNL d   1     -10.648   0.051 -40.377  0.00  0.00    -0.002 A 
ATOM      4  C   UNL d   1     -11.224   0.442 -39.659  0.00  0.00    -0.004 A 
ATOM      5  C   UNL d   1     -10.962   0.343 -38.699  0.00  0.00     0.002 A 
ATOM      6  C   UNL d   1      -9.385  -0.748 -40.978  0.00  0.00    -0.002 A 
ATOM      7  C   UNL d   1      -9.549  -0.538 -39.175  0.00  0.00     0.010 A 
ATOM      8  C   UNL d   1     -10.732   0.041 -41.367  0.00  0.00     0.006 A 
ATOM      9  C   UNL d   1     -11.551   0.745 -37.939  0.00  0.00    -0.016 A 
ATOM     10  C   UNL d   1     -10.124  -0.147 -38.457  0.00  0.00     0.007 A 
ATOM     11  C   UNL d   1      -9.952  -0.452 -41.738  0.00  0.00     0.006 A 
ATOM     12  C   UNL d   1     -12.093   0.950 -39.926  0.00  0.00     0.010 A 
ATOM     13  C   UNL d   1      -8.973  -0.929 -39.893  0.00  0.00     0.016 C 
ATOM     14  C   UNL d   1     -12.425   1.257 -38.184  0.00  0.00    -0.068 A 
ATOM     15  C   UNL d   1     -12.698   1.360 -39.184  0.00  0.00     0.035 A 
ATOM     16  C   UNL d   1     -11.247   0.624 -36.905  0.00  0.00     0.022 A 
ATOM     17  C   UNL d   1     -10.713   0.253 -37.705  0.00  0.00     0.020 C 
ATOM     18  C   UNL d   1     -11.861   1.043 -36.114  0.00  0.00     0.084 A 
ATOM     19  C   UNL d   1     -13.055   1.684 -37.411  0.00  0.00     0.053 A 
ATOM     20  C   UNL d   1     -12.771   1.576 -36.369  0.00  0.00     0.149 A 
ENDROOT
BRANCH   6  21
ATOM     21  C   UNL d   1      -8.532  -1.266 -41.049  0.00  0.00    -0.014 C 
ATOM     22  C   UNL d   1      -8.511  -2.231 -40.788  0.00  0.00     0.010 C 
BRANCH  21  23
ATOM     23  C   UNL d   1      -7.701  -0.819 -41.381  0.00  0.00     0.005 C 
BRANCH  23  24
ATOM     24  C   UNL d   1      -7.242  -1.163 -42.200  0.00  0.00     0.005 C 
BRANCH  24  25
ATOM     25  C   UNL d   1      -6.574  -0.591 -42.676  0.00  0.00    -0.015 C 
ATOM     26  C   UNL d   1      -5.858  -0.122 -42.158  0.00  0.00     0.010 C 
BRANCH  25  27
ATOM     27  C   UNL d   1      -6.623  -0.487 -43.669  0.00  0.00    -0.019 C 
ATOM     28  C   UNL d   1      -6.345  -1.241 -44.264  0.00  0.00     0.010 C 
ATOM     29  C   UNL d   1      -6.950   0.370 -44.068  0.00  0.00     0.010 C 
ENDBRANCH  25  27
ENDBRANCH  24  25
ENDBRANCH  23  24
ENDBRANCH  21  23
ENDBRANCH   6  21
TORSDOF 5
ENDMDL
MODEL 2
REMARK VINA RESULT:    -9.343     48.060     50.261
REMARK INTER + INTRA:          -1.738
REMARK INTER:                 -12.141
REMARK INTRA:                  10.403
REMARK UNBOUND:                10.336
REMARK  5 active torsions:
REMARK  status: ('A' for Active; 'I' for Inactive)
REMARK    1  A    between atoms: C_6  and  C_13 
REMARK    2  A    between atoms: C_13  and  C_19 
REMARK    3  A    between atoms: C_19  and  C_24 
REMARK    4  A    between atoms: C_24  and  C_25 
REMARK    5  A    between atoms: C_25  and  C_26 
ROOT
ATOM      1  O   UNL d   1      17.804   9.704   7.247  0.00  0.00    -0.293 OA
ATOM      2  C   UNL d   1      16.046  10.511   1.359  0.00  0.00    -0.036 A 
ATOM      3  C   UNL d   1      16.807  11.047   1.724  0.00  0.00    -0.002 A 
ATOM      4  C   UNL d   1      17.097  10.922   2.673  0.00  0.00    -0.004 A 
ATOM      5  C   UNL d   1      16.625  10.262   3.257  0.00  0.00     0.002 A 
ATOM      6  C   UNL d   1      15.914  10.776   0.411  0.00  0.00    -0.002 A 
ATOM      7  C   UNL d   1      15.574   9.851   1.943  0.00  0.00     0.010 A 
ATOM      8  C   UNL d   1      17.139  11.638   0.997  0.00  0.00     0.006 A 
ATOM      9  C   UNL d   1      16.916  10.122   4.248  0.00  0.00    -0.016 A 
ATOM     10  C   UNL d   1      15.864   9.726   2.892  0.00  0.00     0.007 A 
ATOM     11  C   UNL d   1      16.588  11.472   0.187  0.00  0.00     0.006 A 
ATOM     12  C   UNL d   1      17.892  11.488   3.038  0.00  0.00     0.010 A 
ATOM     13  C   UNL d   1      15.284   9.975   0.994  0.00  0.00     0.016 C 
ATOM     14  C   UNL d   1      17.708  10.676   4.635  0.00  0.00    -0.068 A 
ATOM     15  C   UNL d   1      18.200  11.364   4.026  0.00  0.00     0.035 A 
ATOM     16  C   UNL d   1      16.389   9.399   4.863  0.00  0.00     0.022 A 
ATOM     17  C   UNL d   1      16.155   9.589   3.876  0.00  0.00     0.020 C 
ATOM     18  C   UNL d   1      16.691   9.253   5.894  0.00  0.00     0.084 A 
ATOM     19  C   UNL d   1      18.029  10.547   5.663  0.00  0.00     0.053 A 
ATOM     20  C   UNL d   1      17.516   9.831   6.297  0.00  0.00     0.149 A 
ENDROOT
BRANCH   6  21
ATOM     21  C   UNL d   1      15.222  10.408  -0.211  0.00  0.00    -0.014 C 
ATOM     22  C   UNL d   1      14.265  10.677  -0.110  0.00  0.00     0.010 C 
BRANCH  21  23
ATOM     23  C   UNL d   1      15.489   9.770  -0.935  0.00  0.00     0.005 C 
BRANCH  23  24
ATOM     24  C   UNL d   1      14.917   9.671  -1.749  0.00  0.00     0.005 C 
BRANCH  24  25
ATOM     25  C   UNL d   1      15.246   9.138  -2.529  0.00  0.00    -0.015 C 
ATOM     26  C   UNL d   1      16.162   8.736  -2.508  0.00  0.00     0.010 C 
BRANCH  25  27
ATOM     27  C   UNL d   1      14.660   9.007  -3.327  0.00  0.00    -0.019 C 
ATOM     28  C   UNL d   1      14.294   8.100  -3.535  0.00  0.00     0.010 C 
ATOM     29  C   UNL d   1      14.438   9.784  -3.919  0.00  0.00     0.010 C 
ENDBRANCH  25  27
ENDBRANCH  24  25
ENDBRANCH  23  24
ENDBRANCH  21  23
ENDBRANCH   6  21
TORSDOF 5
ENDMDL
MODEL 3
REMARK VINA RESULT:    -9.291      1.359      2.036
REMARK INTER + INTRA:          -1.670
REMARK INTER:                 -12.118
REMARK INTRA:                  10.448
REMARK UNBOUND:                10.336
REMARK  5 active torsions:
REMARK  status: ('A' for Active; 'I' for Inactive)
REMARK    1  A    between atoms: C_6  and  C_13 
REMARK    2  A    between atoms: C_13  and  C_19 
REMARK    3  A    between atoms: C_19  and  C_24 
REMARK    4  A    between atoms: C_24  and  C_25 
REMARK    5  A    between atoms: C_25  and  C_26 
ROOT
ATOM      1  O   UNL d   1     -13.701   2.028 -35.798  0.00  0.00    -0.293 OA
ATOM      2  C   UNL d   1      -9.673  -0.453 -39.801  0.00  0.00    -0.036 A 
ATOM      3  C   UNL d   1     -10.493   0.004 -40.146  0.00  0.00    -0.002 A 
ATOM      4  C   UNL d   1     -11.148   0.407 -39.507  0.00  0.00    -0.004 A 
ATOM      5  C   UNL d   1     -10.983   0.353 -38.522  0.00  0.00     0.002 A 
ATOM      6  C   UNL d   1      -9.156  -0.782 -40.583  0.00  0.00    -0.002 A 
ATOM      7  C   UNL d   1      -9.508  -0.507 -38.816  0.00  0.00     0.010 A 
ATOM      8  C   UNL d   1     -10.475  -0.046 -41.139  0.00  0.00     0.006 A 
ATOM      9  C   UNL d   1     -11.656   0.768 -37.844  0.00  0.00    -0.016 A 
ATOM     10  C   UNL d   1     -10.163  -0.105 -38.177  0.00  0.00     0.007 A 
ATOM     11  C   UNL d   1      -9.650  -0.532 -41.409  0.00  0.00     0.006 A 
ATOM     12  C   UNL d   1     -11.997   0.880 -39.882  0.00  0.00     0.010 A 
ATOM     13  C   UNL d   1      -8.854  -0.910 -39.456  0.00  0.00     0.016 C 
ATOM     14  C   UNL d   1     -12.512   1.246 -38.196  0.00  0.00    -0.068 A 
ATOM     15  C   UNL d   1     -12.684   1.303 -39.222  0.00  0.00     0.035 A 
ATOM     16  C   UNL d   1     -11.456   0.696 -36.780  0.00  0.00     0.022 A 
ATOM     17  C   UNL d   1     -10.834   0.309 -37.506  0.00  0.00     0.020 C 
ATOM     18  C   UNL d   1     -12.157   1.128 -36.073  0.00  0.00     0.084 A 
ATOM     19  C   UNL d   1     -13.227   1.685 -37.509  0.00  0.00     0.053 A 
ATOM     20  C   UNL d   1     -13.048   1.626 -36.440  0.00  0.00     0.149 A 
ENDROOT
BRANCH   6  21
ATOM     21  C   UNL d   1      -8.289  -1.280 -40.546  0.00  0.00    -0.014 C 
ATOM     22  C   UNL d   1      -7.424  -0.778 -40.570  0.00  0.00     0.010 C 
BRANCH  21  23
ATOM     23  C   UNL d   1      -8.287  -2.278 -40.487  0.00  0.00     0.005 C 
BRANCH  23  24
ATOM     24  C   UNL d   1      -7.912  -2.823 -41.237  0.00  0.00     0.005 C 
BRANCH  24  25
ATOM     25  C   UNL d   1      -8.110  -3.802 -41.292  0.00  0.00    -0.015 C 
ATOM     26  C   UNL d   1      -7.938  -4.391 -40.503  0.00  0.00     0.010 C 
BRANCH  25  27
ATOM     27  C   UNL d   1      -8.481  -4.189 -42.135  0.00  0.00    -0.019 C 
ATOM     28  C   UNL d   1      -9.416  -4.546 -42.153  0.00  0.00     0.010 C 
ATOM     29  C   UNL d   1      -7.918  -4.220 -42.962  0.00  0.00     0.010 C 
ENDBRANCH  25  27
ENDBRANCH  24  25
ENDBRANCH  23  24
ENDBRANCH  21  23
ENDBRANCH   6  21
TORSDOF 5
ENDMDL
MODEL 4
REMARK VINA RESULT:    -9.261     47.129     49.328
REMARK INTER + INTRA:          -1.632
REMARK INTER:                 -12.188
REMARK INTRA:                  10.556
REMARK UNBOUND:                10.336
REMARK  5 active torsions:
REMARK  status: ('A' for Active; 'I' for Inactive)
REMARK    1  A    between atoms: C_6  and  C_13 
REMARK    2  A    between atoms: C_13  and  C_19 
REMARK    3  A    between atoms: C_19  and  C_24 
REMARK    4  A    between atoms: C_24  and  C_25 
REMARK    5  A    between atoms: C_25  and  C_26 
ROOT
ATOM      1  O   UNL d   1      17.180   9.878   6.207  0.00  0.00    -0.293 OA
ATOM      2  C   UNL d   1      16.042  10.624   0.161  0.00  0.00    -0.036 A 
ATOM      3  C   UNL d   1      16.750  11.176   0.601  0.00  0.00    -0.002 A 
ATOM      4  C   UNL d   1      16.939  11.062   1.576  0.00  0.00    -0.004 A 
ATOM      5  C   UNL d   1      16.421  10.395   2.111  0.00  0.00     0.002 A 
ATOM      6  C   UNL d   1      16.006  10.882  -0.798  0.00  0.00    -0.002 A 
ATOM      7  C   UNL d   1      15.523   9.957   0.696  0.00  0.00     0.010 A 
ATOM      8  C   UNL d   1      17.145  11.771  -0.090  0.00  0.00     0.006 A 
ATOM      9  C   UNL d   1      16.607  10.264   3.128  0.00  0.00    -0.016 A 
ATOM     10  C   UNL d   1      15.713   9.843   1.672  0.00  0.00     0.007 A 
ATOM     11  C   UNL d   1      16.686  11.590  -0.953  0.00  0.00     0.006 A 
ATOM     12  C   UNL d   1      17.680  11.644   2.020  0.00  0.00     0.010 A 
ATOM     13  C   UNL d   1      15.333  10.071  -0.279  0.00  0.00     0.016 C 
ATOM     14  C   UNL d   1      17.343  10.836   3.593  0.00  0.00    -0.068 A 
ATOM     15  C   UNL d   1      17.884  11.531   3.036  0.00  0.00     0.035 A 
ATOM     16  C   UNL d   1      16.032   9.535   3.688  0.00  0.00     0.022 A 
ATOM     17  C   UNL d   1      15.900   9.716   2.681  0.00  0.00     0.020 C 
ATOM     18  C   UNL d   1      16.226   9.399   4.747  0.00  0.00     0.084 A 
ATOM     19  C   UNL d   1      17.555  10.719   4.651  0.00  0.00     0.053 A 
ATOM     20  C   UNL d   1      16.992   9.995   5.232  0.00  0.00     0.149 A 
ENDROOT
BRANCH   6  21
ATOM     21  C   UNL d   1      15.392  10.497  -1.487  0.00  0.00    -0.014 C 
ATOM     22  C   UNL d   1      15.485   9.540  -1.760  0.00  0.00     0.010 C 
BRANCH  21  23
ATOM     23  C   UNL d   1      14.685  11.070  -1.903  0.00  0.00     0.005 C 
BRANCH  23  24
ATOM     24  C   UNL d   1      14.410  10.915  -2.852  0.00  0.00     0.005 C 
BRANCH  24  25
ATOM     25  C   UNL d   1      13.875  11.607  -3.337  0.00  0.00    -0.015 C 
ATOM     26  C   UNL d   1      13.234  12.186  -2.833  0.00  0.00     0.010 C 
BRANCH  25  27
ATOM     27  C   UNL d   1      13.981  11.719  -4.324  0.00  0.00    -0.019 C 
ATOM     28  C   UNL d   1      14.105  12.633  -4.713  0.00  0.00     0.010 C 
ATOM     29  C   UNL d   1      13.963  10.918  -4.924  0.00  0.00     0.010 C 
ENDBRANCH  25  27
ENDBRANCH  24  25
ENDBRANCH  23  24
ENDBRANCH  21  23
ENDBRANCH   6  21
TORSDOF 5
ENDMDL
MODEL 5
REMARK VINA RESULT:    -8.987      0.729      1.820
REMARK INTER + INTRA:          -1.278
REMARK INTER:                 -11.680
REMARK INTRA:                  10.402
REMARK UNBOUND:                10.336
REMARK  5 active torsions:
REMARK  status: ('A' for Active; 'I' for Inactive)
REMARK    1  A    between atoms: C_6  and  C_13 
REMARK    2  A    between atoms: C_13  and  C_19 
REMARK    3  A    between atoms: C_19  and  C_24 
REMARK    4  A    between atoms: C_24  and  C_25 
REMARK    5  A    between atoms: C_25  and  C_26 
ROOT
ATOM      1  O   UNL d   1     -13.769   1.997 -36.739  0.00  0.00    -0.293 OA
ATOM      2  C   UNL d   1      -9.457  -0.624 -40.336  0.00  0.00    -0.036 A 
ATOM      3  C   UNL d   1      -9.323  -0.598 -39.345  0.00  0.00    -0.002 A 
ATOM      4  C   UNL d   1     -10.014  -0.177 -38.758  0.00  0.00    -0.004 A 
ATOM      5  C   UNL d   1     -10.839   0.218 -39.162  0.00  0.00     0.002 A 
ATOM      6  C   UNL d   1      -8.670  -1.078 -40.738  0.00  0.00    -0.002 A 
ATOM      7  C   UNL d   1     -10.282  -0.229 -40.739  0.00  0.00     0.010 A 
ATOM      8  C   UNL d   1      -8.454  -1.037 -39.144  0.00  0.00     0.006 A 
ATOM      9  C   UNL d   1     -11.568   0.660 -38.563  0.00  0.00    -0.016 A 
ATOM     10  C   UNL d   1     -10.973   0.192 -40.152  0.00  0.00     0.007 A 
ATOM     11  C   UNL d   1      -8.051  -1.333 -40.003  0.00  0.00     0.006 A 
ATOM     12  C   UNL d   1      -9.861  -0.158 -37.728  0.00  0.00     0.010 A 
ATOM     13  C   UNL d   1      -9.591  -0.650 -41.327  0.00  0.00     0.016 C 
ATOM     14  C   UNL d   1     -11.435   0.691 -37.530  0.00  0.00    -0.068 A 
ATOM     15  C   UNL d   1     -10.576   0.279 -37.109  0.00  0.00     0.035 A 
ATOM     16  C   UNL d   1     -12.455   1.083 -39.023  0.00  0.00     0.022 A 
ATOM     17  C   UNL d   1     -11.695   0.631 -39.554  0.00  0.00     0.020 C 
ATOM     18  C   UNL d   1     -13.214   1.544 -38.399  0.00  0.00     0.084 A 
ATOM     19  C   UNL d   1     -12.180   1.146 -36.885  0.00  0.00     0.053 A 
ATOM     20  C   UNL d   1     -13.076   1.575 -37.324  0.00  0.00     0.149 A 
ENDROOT
BRANCH   6  21
ATOM     21  C   UNL d   1      -8.525  -1.249 -41.713  0.00  0.00    -0.014 C 
ATOM     22  C   UNL d   1      -9.010  -1.997 -42.166  0.00  0.00     0.010 C 
BRANCH  21  23
ATOM     23  C   UNL d   1      -7.895  -0.672 -42.234  0.00  0.00     0.005 C 
BRANCH  23  24
ATOM     24  C   UNL d   1      -7.313  -1.079 -42.939  0.00  0.00     0.005 C 
BRANCH  24  25
ATOM     25  C   UNL d   1      -6.635  -0.516 -43.412  0.00  0.00    -0.015 C 
ATOM     26  C   UNL d   1      -6.881   0.399 -43.731  0.00  0.00     0.010 C 
BRANCH  25  27
ATOM     27  C   UNL d   1      -5.713  -0.868 -43.564  0.00  0.00    -0.019 C 
ATOM     28  C   UNL d   1      -5.532  -1.477 -44.337  0.00  0.00     0.010 C 
ATOM     29  C   UNL d   1      -4.970  -0.613 -42.945  0.00  0.00     0.010 C 
ENDBRANCH  25  27
ENDBRANCH  24  25
ENDBRANCH  23  24
ENDBRANCH  21  23
ENDBRANCH   6  21
TORSDOF 5
ENDMDL
