MODEL 1
REMARK VINA RESULT:    -7.719      0.000      0.000
REMARK INTER + INTRA:          -7.549
REMARK INTER:                  -8.564
REMARK INTRA:                   1.015
REMARK UNBOUND:                 1.073
REMARK  3 active torsions:
REMARK  status: ('A' for Active; 'I' for Inactive)
REMARK    1  A    between atoms: O_2  and  C_10 
REMARK    2  A    between atoms: O_4  and  C_13 
REMARK    3  A    between atoms: C_7  and  C_9 
ROOT
ATOM      1  O   UNL d   1      16.886   4.434  34.128  0.00  0.00    -0.309 OA
ATOM      2  O   UNL d   1      17.497   2.555  36.385  0.00  0.00    -0.287 OA
ATOM      3  C   UNL d   1      17.879   3.976  35.471  0.00  0.00     0.081 A 
ATOM      4  C   UNL d   1      17.675   4.602  34.718  0.00  0.00     0.095 A 
ATOM      5  C   UNL d   1      16.300   3.640  34.290  0.00  0.00     0.090 A 
ATOM      6  C   UNL d   1      17.293   3.181  35.632  0.00  0.00     0.190 A 
ATOM      7  C   UNL d   1      18.698   4.138  36.094  0.00  0.00     0.085 A 
ATOM      8  C   UNL d   1      16.504   3.014  35.042  0.00  0.00     0.094 A 
ATOM      9  C   UNL d   1      18.276   5.434  34.537  0.00  0.00     0.075 A 
ATOM     10  C   UNL d   1      19.100   5.615  35.148  0.00  0.00     0.071 A 
ATOM     11  C   UNL d   1      19.312   4.963  35.931  0.00  0.00     0.074 A 
ENDROOT
BRANCH   5  12
ATOM     12  C   UNL d   1      15.511   3.472  33.699  0.00  0.00    -0.002 A 
ATOM     13  C   UNL d   1      14.669   3.996  33.829  0.00  0.00     0.014 A 
ATOM     14  C   UNL d   1      13.880   3.829  33.238  0.00  0.00     0.001 A 
ATOM     15  C   UNL d   1      13.932   3.137  32.518  0.00  0.00     0.000 A 
ATOM     16  C   UNL d   1      14.774   2.613  32.388  0.00  0.00     0.001 A 
ATOM     17  C   UNL d   1      15.563   2.780  32.979  0.00  0.00     0.014 A 
ENDBRANCH   5  12
BRANCH   7  18
ATOM     18  O   UNL d   1      18.892   3.504  36.843  0.00  0.00    -0.360 OA
ATOM     19  H   UNL d   1      18.571   3.543  37.372  0.00  0.00     0.217 HD
ENDBRANCH   7  18
BRANCH  10  20
ATOM     20  O   UNL d   1      19.683   6.410  34.982  0.00  0.00    -0.361 OA
ATOM     21  H   UNL d   1      19.693   6.676  34.423  0.00  0.00     0.217 HD
ENDBRANCH  10  20
TORSDOF 3
ENDMDL
MODEL 2
REMARK VINA RESULT:    -7.533     23.217     24.901
REMARK INTER + INTRA:          -7.341
REMARK INTER:                  -8.473
REMARK INTRA:                   1.132
REMARK UNBOUND:                 1.073
REMARK  3 active torsions:
REMARK  status: ('A' for Active; 'I' for Inactive)
REMARK    1  A    between atoms: O_2  and  C_10 
REMARK    2  A    between atoms: O_4  and  C_13 
REMARK    3  A    between atoms: C_7  and  C_9 
ROOT
ATOM      1  O   UNL d   1      35.274  12.229  47.855  0.00  0.00    -0.309 OA
ATOM      2  O   UNL d   1      37.731  11.520  49.424  0.00  0.00    -0.287 OA
ATOM      3  C   UNL d   1      36.632  11.189  48.127  0.00  0.00     0.081 A 
ATOM      4  C   UNL d   1      35.813  11.425  47.604  0.00  0.00     0.095 A 
ATOM      5  C   UNL d   1      35.554  12.797  48.629  0.00  0.00     0.090 A 
ATOM      6  C   UNL d   1      36.912  11.756  48.901  0.00  0.00     0.190 A 
ATOM      7  C   UNL d   1      37.203  10.355  47.877  0.00  0.00     0.085 A 
ATOM      8  C   UNL d   1      36.373  12.560  49.152  0.00  0.00     0.094 A 
ATOM      9  C   UNL d   1      35.509  10.844  46.794  0.00  0.00     0.075 A 
ATOM     10  C   UNL d   1      36.065  10.005  46.527  0.00  0.00     0.071 A 
ATOM     11  C   UNL d   1      36.918   9.759  47.071  0.00  0.00     0.074 A 
ENDROOT
BRANCH   5  12
ATOM     12  C   UNL d   1      35.015  13.601  48.880  0.00  0.00    -0.002 A 
ATOM     13  C   UNL d   1      34.662  13.695  49.811  0.00  0.00     0.014 A 
ATOM     14  C   UNL d   1      34.123  14.499  50.062  0.00  0.00     0.001 A 
ATOM     15  C   UNL d   1      33.937  15.209  49.383  0.00  0.00     0.000 A 
ATOM     16  C   UNL d   1      34.290  15.114  48.452  0.00  0.00     0.001 A 
ATOM     17  C   UNL d   1      34.829  14.310  48.200  0.00  0.00     0.014 A 
ENDBRANCH   5  12
BRANCH   7  18
ATOM     18  O   UNL d   1      38.020  10.128  48.407  0.00  0.00    -0.360 OA
ATOM     19  H   UNL d   1      38.435   9.728  48.180  0.00  0.00     0.217 HD
ENDBRANCH   7  18
BRANCH  10  20
ATOM     20  O   UNL d   1      35.782   9.440  45.752  0.00  0.00    -0.361 OA
ATOM     21  H   UNL d   1      35.753   8.823  45.812  0.00  0.00     0.217 HD
ENDBRANCH  10  20
TORSDOF 3
ENDMDL
MODEL 3
REMARK VINA RESULT:    -7.380      3.240      4.138
REMARK INTER + INTRA:          -7.170
REMARK INTER:                  -8.258
REMARK INTRA:                   1.088
REMARK UNBOUND:                 1.073
REMARK  3 active torsions:
REMARK  status: ('A' for Active; 'I' for Inactive)
REMARK    1  A    between atoms: O_2  and  C_10 
REMARK    2  A    between atoms: O_4  and  C_13 
REMARK    3  A    between atoms: C_7  and  C_9 
ROOT
ATOM      1  O   UNL d   1      13.699   3.992  35.991  0.00  0.00    -0.309 OA
ATOM      2  O   UNL d   1      16.073   2.191  36.339  0.00  0.00    -0.287 OA
ATOM      3  C   UNL d   1      15.295   3.507  35.525  0.00  0.00     0.081 A 
ATOM      4  C   UNL d   1      14.504   4.107  35.409  0.00  0.00     0.095 A 
ATOM      5  C   UNL d   1      13.686   3.276  36.689  0.00  0.00     0.090 A 
ATOM      6  C   UNL d   1      15.282   2.791  36.223  0.00  0.00     0.190 A 
ATOM      7  C   UNL d   1      16.140   3.615  34.926  0.00  0.00     0.085 A 
ATOM      8  C   UNL d   1      14.477   2.676  36.805  0.00  0.00     0.094 A 
ATOM      9  C   UNL d   1      14.503   4.857  34.686  0.00  0.00     0.075 A 
ATOM     10  C   UNL d   1      15.338   4.983  34.075  0.00  0.00     0.071 A 
ATOM     11  C   UNL d   1      16.161   4.358  34.196  0.00  0.00     0.074 A 
ENDROOT
BRANCH   5  12
ATOM     12  C   UNL d   1      12.881   3.161  37.271  0.00  0.00    -0.002 A 
ATOM     13  C   UNL d   1      12.957   3.286  38.260  0.00  0.00     0.014 A 
ATOM     14  C   UNL d   1      12.152   3.171  38.843  0.00  0.00     0.001 A 
ATOM     15  C   UNL d   1      11.271   2.930  38.436  0.00  0.00     0.000 A 
ATOM     16  C   UNL d   1      11.195   2.805  37.446  0.00  0.00     0.001 A 
ATOM     17  C   UNL d   1      12.000   2.920  36.864  0.00  0.00     0.014 A 
ENDBRANCH   5  12
BRANCH   7  18
ATOM     18  O   UNL d   1      16.926   3.009  35.051  0.00  0.00    -0.360 OA
ATOM     19  H   UNL d   1      17.242   2.807  34.558  0.00  0.00     0.217 HD
ENDBRANCH   7  18
BRANCH  10  20
ATOM     20  O   UNL d   1      15.347   5.701  33.378  0.00  0.00    -0.361 OA
ATOM     21  H   UNL d   1      15.430   5.552  32.782  0.00  0.00     0.217 HD
ENDBRANCH  10  20
TORSDOF 3
ENDMDL
MODEL 4
REMARK VINA RESULT:    -7.353     27.177     28.925
REMARK INTER + INTRA:          -7.140
REMARK INTER:                  -8.139
REMARK INTRA:                   0.999
REMARK UNBOUND:                 1.073
REMARK  3 active torsions:
REMARK  status: ('A' for Active; 'I' for Inactive)
REMARK    1  A    between atoms: O_2  and  C_10 
REMARK    2  A    between atoms: O_4  and  C_13 
REMARK    3  A    between atoms: C_7  and  C_9 
ROOT
ATOM      1  O   UNL d   1      21.631  30.469  46.384  0.00  0.00    -0.309 OA
ATOM      2  O   UNL d   1      20.352  28.169  44.944  0.00  0.00    -0.287 OA
ATOM      3  C   UNL d   1      21.607  29.357  45.056  0.00  0.00     0.081 A 
ATOM      4  C   UNL d   1      22.034  30.124  45.537  0.00  0.00     0.095 A 
ATOM      5  C   UNL d   1      20.802  30.047  46.752  0.00  0.00     0.090 A 
ATOM      6  C   UNL d   1      20.778  28.935  45.424  0.00  0.00     0.190 A 
ATOM      7  C   UNL d   1      22.015  28.987  44.173  0.00  0.00     0.085 A 
ATOM      8  C   UNL d   1      20.376  29.280  46.272  0.00  0.00     0.094 A 
ATOM      9  C   UNL d   1      22.897  30.573  45.166  0.00  0.00     0.075 A 
ATOM     10  C   UNL d   1      23.322  30.219  44.284  0.00  0.00     0.071 A 
ATOM     11  C   UNL d   1      22.879  29.421  43.784  0.00  0.00     0.074 A 
ENDROOT
BRANCH   5  12
ATOM     12  C   UNL d   1      20.399  30.392  47.600  0.00  0.00    -0.002 A 
ATOM     13  C   UNL d   1      19.709  31.115  47.568  0.00  0.00     0.014 A 
ATOM     14  C   UNL d   1      19.306  31.460  48.416  0.00  0.00     0.001 A 
ATOM     15  C   UNL d   1      19.594  31.082  49.296  0.00  0.00     0.000 A 
ATOM     16  C   UNL d   1      20.284  30.359  49.328  0.00  0.00     0.001 A 
ATOM     17  C   UNL d   1      20.687  30.014  48.480  0.00  0.00     0.014 A 
ENDBRANCH   5  12
BRANCH   7  18
ATOM     18  O   UNL d   1      21.580  28.220  43.701  0.00  0.00    -0.360 OA
ATOM     19  H   UNL d   1      21.463  28.256  43.093  0.00  0.00     0.217 HD
ENDBRANCH   7  18
BRANCH  10  20
ATOM     20  O   UNL d   1      24.152  30.644  43.919  0.00  0.00    -0.361 OA
ATOM     21  H   UNL d   1      24.504  30.999  44.285  0.00  0.00     0.217 HD
ENDBRANCH  10  20
TORSDOF 3
ENDMDL
MODEL 5
REMARK VINA RESULT:    -7.305      1.896      4.648
REMARK INTER + INTRA:          -7.086
REMARK INTER:                  -8.405
REMARK INTRA:                   1.318
REMARK UNBOUND:                 1.073
REMARK  3 active torsions:
REMARK  status: ('A' for Active; 'I' for Inactive)
REMARK    1  A    between atoms: O_2  and  C_10 
REMARK    2  A    between atoms: O_4  and  C_13 
REMARK    3  A    between atoms: C_7  and  C_9 
ROOT
ATOM      1  O   UNL d   1      17.133   2.747  35.815  0.00  0.00    -0.309 OA
ATOM      2  O   UNL d   1      14.493   3.560  34.645  0.00  0.00    -0.287 OA
ATOM      3  C   UNL d   1      15.466   2.406  35.494  0.00  0.00     0.081 A 
ATOM      4  C   UNL d   1      16.346   2.135  35.884  0.00  0.00     0.095 A 
ATOM      5  C   UNL d   1      17.041   3.630  35.355  0.00  0.00     0.090 A 
ATOM      6  C   UNL d   1      15.373   3.289  35.035  0.00  0.00     0.190 A 
ATOM      7  C   UNL d   1      14.637   1.778  35.559  0.00  0.00     0.085 A 
ATOM      8  C   UNL d   1      16.160   3.901  34.965  0.00  0.00     0.094 A 
ATOM      9  C   UNL d   1      16.458   1.218  36.366  0.00  0.00     0.075 A 
ATOM     10  C   UNL d   1      15.642   0.574  36.442  0.00  0.00     0.071 A 
ATOM     11  C   UNL d   1      14.726   0.857  36.036  0.00  0.00     0.074 A 
ENDROOT
BRANCH   5  12
ATOM     12  C   UNL d   1      17.828   4.243  35.286  0.00  0.00    -0.002 A 
ATOM     13  C   UNL d   1      18.526   4.242  36.001  0.00  0.00     0.014 A 
ATOM     14  C   UNL d   1      19.314   4.855  35.932  0.00  0.00     0.001 A 
ATOM     15  C   UNL d   1      19.403   5.467  35.146  0.00  0.00     0.000 A 
ATOM     16  C   UNL d   1      18.705   5.467  34.431  0.00  0.00     0.001 A 
ATOM     17  C   UNL d   1      17.917   4.855  34.500  0.00  0.00     0.014 A 
ENDBRANCH   5  12
BRANCH   7  18
ATOM     18  O   UNL d   1      13.762   2.060  35.166  0.00  0.00    -0.360 OA
ATOM     19  H   UNL d   1      13.500   1.720  34.718  0.00  0.00     0.217 HD
ENDBRANCH   7  18
BRANCH  10  20
ATOM     20  O   UNL d   1      15.739  -0.308  36.903  0.00  0.00    -0.361 OA
ATOM     21  H   UNL d   1      16.301  -0.511  37.069  0.00  0.00     0.217 HD
ENDBRANCH  10  20
TORSDOF 3
ENDMDL
