MODEL 1
REMARK VINA RESULT:    -5.520      0.000      0.000
REMARK INTER + INTRA:          -5.060
REMARK INTER:                  -6.315
REMARK INTRA:                   1.255
REMARK UNBOUND:                 1.105
REMARK  3 active torsions:
REMARK  status: ('A' for Active; 'I' for Inactive)
REMARK    1  A    between atoms: O_2  and  C_10 
REMARK    2  A    between atoms: O_4  and  C_13 
REMARK    3  A    between atoms: C_7  and  C_9 
ROOT
ATOM      1  O   UNL d   1       6.613 -47.221 -40.533  0.00  0.00    -0.309 OA
ATOM      2  O   UNL d   1       4.246 -47.587 -38.727  0.00  0.00    -0.287 OA
ATOM      3  C   UNL d   1       5.918 -47.868 -39.085  0.00  0.00     0.081 A 
ATOM      4  C   UNL d   1       6.707 -47.746 -39.687  0.00  0.00     0.095 A 
ATOM      5  C   UNL d   1       5.731 -46.819 -40.778  0.00  0.00     0.090 A 
ATOM      6  C   UNL d   1       5.035 -47.465 -39.329  0.00  0.00     0.190 A 
ATOM      7  C   UNL d   1       6.000 -48.411 -38.200  0.00  0.00     0.085 A 
ATOM      8  C   UNL d   1       4.942 -46.941 -40.176  0.00  0.00     0.094 A 
ATOM      9  C   UNL d   1       7.632 -48.158 -39.446  0.00  0.00     0.075 A 
ATOM     10  C   UNL d   1       7.737 -48.706 -38.566  0.00  0.00     0.071 A 
ATOM     11  C   UNL d   1       6.916 -48.833 -37.939  0.00  0.00     0.074 A 
ENDROOT
BRANCH   5  12
ATOM     12  C   UNL d   1       5.638 -46.295 -41.624  0.00  0.00    -0.002 A 
ATOM     13  C   UNL d   1       6.380 -45.696 -41.926  0.00  0.00     0.014 A 
ATOM     14  C   UNL d   1       6.287 -45.172 -42.772  0.00  0.00     0.001 A 
ATOM     15  C   UNL d   1       5.451 -45.246 -43.317  0.00  0.00     0.000 A 
ATOM     16  C   UNL d   1       4.709 -45.844 -43.015  0.00  0.00     0.001 A 
ATOM     17  C   UNL d   1       4.802 -46.369 -42.168  0.00  0.00     0.014 A 
ENDBRANCH   5  12
BRANCH   7  18
ATOM     18  O   UNL d   1       5.204 -48.527 -37.606  0.00  0.00    -0.360 OA
ATOM     19  H   UNL d   1       5.280 -48.572 -36.993  0.00  0.00     0.217 HD
ENDBRANCH   7  18
BRANCH  10  20
ATOM     20  O   UNL d   1       8.621 -49.107 -38.326  0.00  0.00    -0.361 OA
ATOM     21  H   UNL d   1       9.108 -49.032 -38.702  0.00  0.00     0.217 HD
ENDBRANCH  10  20
TORSDOF 3
ENDMDL
MODEL 2
REMARK VINA RESULT:    -5.474      3.160      4.028
REMARK INTER + INTRA:          -5.009
REMARK INTER:                  -6.013
REMARK INTRA:                   1.004
REMARK UNBOUND:                 1.105
REMARK  3 active torsions:
REMARK  status: ('A' for Active; 'I' for Inactive)
REMARK    1  A    between atoms: O_2  and  C_10 
REMARK    2  A    between atoms: O_4  and  C_13 
REMARK    3  A    between atoms: C_7  and  C_9 
ROOT
ATOM      1  O   UNL d   1       7.179 -45.003 -40.639  0.00  0.00    -0.309 OA
ATOM      2  O   UNL d   1       6.489 -42.115 -40.211  0.00  0.00    -0.287 OA
ATOM      3  C   UNL d   1       7.523 -43.471 -39.908  0.00  0.00     0.081 A 
ATOM      4  C   UNL d   1       7.753 -44.433 -40.050  0.00  0.00     0.095 A 
ATOM      5  C   UNL d   1       6.375 -44.609 -41.085  0.00  0.00     0.090 A 
ATOM      6  C   UNL d   1       6.719 -43.077 -40.353  0.00  0.00     0.190 A 
ATOM      7  C   UNL d   1       8.112 -42.866 -39.298  0.00  0.00     0.085 A 
ATOM      8  C   UNL d   1       6.145 -43.647 -40.942  0.00  0.00     0.094 A 
ATOM      9  C   UNL d   1       8.588 -44.858 -39.593  0.00  0.00     0.075 A 
ATOM     10  C   UNL d   1       9.190 -44.271 -38.979  0.00  0.00     0.071 A 
ATOM     11  C   UNL d   1       8.951 -43.269 -38.830  0.00  0.00     0.074 A 
ENDROOT
BRANCH   5  12
ATOM     12  C   UNL d   1       5.801 -45.178 -41.673  0.00  0.00    -0.002 A 
ATOM     13  C   UNL d   1       5.939 -45.172 -42.664  0.00  0.00     0.014 A 
ATOM     14  C   UNL d   1       5.365 -45.742 -43.252  0.00  0.00     0.001 A 
ATOM     15  C   UNL d   1       4.653 -46.317 -42.850  0.00  0.00     0.000 A 
ATOM     16  C   UNL d   1       4.515 -46.323 -41.860  0.00  0.00     0.001 A 
ATOM     17  C   UNL d   1       5.089 -45.754 -41.271  0.00  0.00     0.014 A 
ENDBRANCH   5  12
BRANCH   7  18
ATOM     18  O   UNL d   1       7.872 -41.904 -39.162  0.00  0.00    -0.360 OA
ATOM     19  H   UNL d   1       7.376 -41.754 -38.823  0.00  0.00     0.217 HD
ENDBRANCH   7  18
BRANCH  10  20
ATOM     20  O   UNL d   1       9.994 -44.668 -38.535  0.00  0.00    -0.361 OA
ATOM     21  H   UNL d   1      10.406 -44.987 -38.869  0.00  0.00     0.217 HD
ENDBRANCH  10  20
TORSDOF 3
ENDMDL
MODEL 3
REMARK VINA RESULT:    -5.435      2.517      3.796
REMARK INTER + INTRA:          -4.966
REMARK INTER:                  -5.968
REMARK INTRA:                   1.002
REMARK UNBOUND:                 1.105
REMARK  3 active torsions:
REMARK  status: ('A' for Active; 'I' for Inactive)
REMARK    1  A    between atoms: O_2  and  C_10 
REMARK    2  A    between atoms: O_4  and  C_13 
REMARK    3  A    between atoms: C_7  and  C_9 
ROOT
ATOM      1  O   UNL d   1       5.665 -44.929 -41.008  0.00  0.00    -0.309 OA
ATOM      2  O   UNL d   1       8.060 -46.703 -40.661  0.00  0.00    -0.287 OA
ATOM      3  C   UNL d   1       7.283 -45.171 -40.440  0.00  0.00     0.081 A 
ATOM      4  C   UNL d   1       6.485 -44.579 -40.556  0.00  0.00     0.095 A 
ATOM      5  C   UNL d   1       5.643 -45.871 -41.345  0.00  0.00     0.090 A 
ATOM      6  C   UNL d   1       7.262 -46.112 -40.777  0.00  0.00     0.190 A 
ATOM      7  C   UNL d   1       8.144 -44.820 -39.971  0.00  0.00     0.085 A 
ATOM      8  C   UNL d   1       6.441 -46.462 -41.229  0.00  0.00     0.094 A 
ATOM      9  C   UNL d   1       6.493 -43.596 -40.210  0.00  0.00     0.075 A 
ATOM     10  C   UNL d   1       7.344 -43.225 -39.738  0.00  0.00     0.071 A 
ATOM     11  C   UNL d   1       8.175 -43.840 -39.617  0.00  0.00     0.074 A 
ENDROOT
BRANCH   5  12
ATOM     12  C   UNL d   1       4.823 -46.221 -41.798  0.00  0.00    -0.002 A 
ATOM     13  C   UNL d   1       4.144 -46.735 -41.274  0.00  0.00     0.014 A 
ATOM     14  C   UNL d   1       3.324 -47.085 -41.726  0.00  0.00     0.001 A 
ATOM     15  C   UNL d   1       3.183 -46.921 -42.703  0.00  0.00     0.000 A 
ATOM     16  C   UNL d   1       3.862 -46.407 -43.226  0.00  0.00     0.001 A 
ATOM     17  C   UNL d   1       4.682 -46.057 -42.774  0.00  0.00     0.014 A 
ENDBRANCH   5  12
BRANCH   7  18
ATOM     18  O   UNL d   1       8.937 -45.420 -39.860  0.00  0.00    -0.360 OA
ATOM     19  H   UNL d   1       9.415 -45.240 -39.510  0.00  0.00     0.217 HD
ENDBRANCH   7  18
BRANCH  10  20
ATOM     20  O   UNL d   1       7.362 -42.283 -39.402  0.00  0.00    -0.361 OA
ATOM     21  H   UNL d   1       7.811 -41.897 -39.586  0.00  0.00     0.217 HD
ENDBRANCH  10  20
TORSDOF 3
ENDMDL
MODEL 4
REMARK VINA RESULT:    -5.244     27.600     28.543
REMARK INTER + INTRA:          -4.752
REMARK INTER:                  -5.752
REMARK INTRA:                   1.000
REMARK UNBOUND:                 1.105
REMARK  3 active torsions:
REMARK  status: ('A' for Active; 'I' for Inactive)
REMARK    1  A    between atoms: O_2  and  C_10 
REMARK    2  A    between atoms: O_4  and  C_13 
REMARK    3  A    between atoms: C_7  and  C_9 
ROOT
ATOM      1  O   UNL d   1      33.029 -40.286 -41.256  0.00  0.00    -0.309 OA
ATOM      2  O   UNL d   1      35.409 -40.615 -39.460  0.00  0.00    -0.287 OA
ATOM      3  C   UNL d   1      34.257 -41.291 -40.562  0.00  0.00     0.081 A 
ATOM      4  C   UNL d   1      33.464 -41.181 -41.161  0.00  0.00     0.095 A 
ATOM      5  C   UNL d   1      33.388 -39.500 -40.753  0.00  0.00     0.090 A 
ATOM      6  C   UNL d   1      34.616 -40.505 -40.059  0.00  0.00     0.190 A 
ATOM      7  C   UNL d   1      34.719 -42.218 -40.453  0.00  0.00     0.085 A 
ATOM      8  C   UNL d   1      34.182 -39.609 -40.154  0.00  0.00     0.094 A 
ATOM      9  C   UNL d   1      33.078 -41.991 -41.692  0.00  0.00     0.075 A 
ATOM     10  C   UNL d   1      33.525 -42.927 -41.597  0.00  0.00     0.071 A 
ATOM     11  C   UNL d   1      34.351 -43.041 -40.974  0.00  0.00     0.074 A 
ENDROOT
BRANCH   5  12
ATOM     12  C   UNL d   1      32.954 -38.604 -40.849  0.00  0.00    -0.002 A 
ATOM     13  C   UNL d   1      32.241 -38.323 -40.207  0.00  0.00     0.014 A 
ATOM     14  C   UNL d   1      31.807 -37.428 -40.302  0.00  0.00     0.001 A 
ATOM     15  C   UNL d   1      32.086 -36.813 -41.040  0.00  0.00     0.000 A 
ATOM     16  C   UNL d   1      32.799 -37.094 -41.682  0.00  0.00     0.001 A 
ATOM     17  C   UNL d   1      33.234 -37.989 -41.586  0.00  0.00     0.014 A 
ENDBRANCH   5  12
BRANCH   7  18
ATOM     18  O   UNL d   1      35.512 -42.316 -39.851  0.00  0.00    -0.360 OA
ATOM     19  H   UNL d   1      35.471 -42.662 -39.339  0.00  0.00     0.217 HD
ENDBRANCH   7  18
BRANCH  10  20
ATOM     20  O   UNL d   1      33.163 -43.710 -42.102  0.00  0.00    -0.361 OA
ATOM     21  H   UNL d   1      32.764 -44.098 -41.828  0.00  0.00     0.217 HD
ENDBRANCH  10  20
TORSDOF 3
ENDMDL
MODEL 5
REMARK VINA RESULT:    -5.227      1.597      4.790
REMARK INTER + INTRA:          -4.733
REMARK INTER:                  -5.734
REMARK INTRA:                   1.001
REMARK UNBOUND:                 1.105
REMARK  3 active torsions:
REMARK  status: ('A' for Active; 'I' for Inactive)
REMARK    1  A    between atoms: O_2  and  C_10 
REMARK    2  A    between atoms: O_4  and  C_13 
REMARK    3  A    between atoms: C_7  and  C_9 
ROOT
ATOM      1  O   UNL d   1       5.558 -47.095 -40.266  0.00  0.00    -0.309 OA
ATOM      2  O   UNL d   1       7.309 -45.926 -42.403  0.00  0.00    -0.287 OA
ATOM      3  C   UNL d   1       5.734 -46.342 -41.816  0.00  0.00     0.081 A 
ATOM      4  C   UNL d   1       5.150 -46.732 -41.103  0.00  0.00     0.095 A 
ATOM      5  C   UNL d   1       6.550 -47.069 -40.141  0.00  0.00     0.090 A 
ATOM      6  C   UNL d   1       6.726 -46.316 -41.691  0.00  0.00     0.190 A 
ATOM      7  C   UNL d   1       5.323 -45.960 -42.693  0.00  0.00     0.085 A 
ATOM      8  C   UNL d   1       7.134 -46.679 -40.853  0.00  0.00     0.094 A 
ATOM      9  C   UNL d   1       4.115 -46.766 -41.219  0.00  0.00     0.075 A 
ATOM     10  C   UNL d   1       3.683 -46.390 -42.089  0.00  0.00     0.071 A 
ATOM     11  C   UNL d   1       4.291 -45.984 -42.831  0.00  0.00     0.074 A 
ENDROOT
BRANCH   5  12
ATOM     12  C   UNL d   1       6.958 -47.432 -39.303  0.00  0.00    -0.002 A 
ATOM     13  C   UNL d   1       7.289 -48.375 -39.277  0.00  0.00     0.014 A 
ATOM     14  C   UNL d   1       7.697 -48.738 -38.439  0.00  0.00     0.001 A 
ATOM     15  C   UNL d   1       7.775 -48.158 -37.628  0.00  0.00     0.000 A 
ATOM     16  C   UNL d   1       7.444 -47.215 -37.655  0.00  0.00     0.001 A 
ATOM     17  C   UNL d   1       7.036 -46.852 -38.493  0.00  0.00     0.014 A 
ENDBRANCH   5  12
BRANCH   7  18
ATOM     18  O   UNL d   1       5.916 -45.573 -43.399  0.00  0.00    -0.360 OA
ATOM     19  H   UNL d   1       6.062 -44.971 -43.384  0.00  0.00     0.217 HD
ENDBRANCH   7  18
BRANCH  10  20
ATOM     20  O   UNL d   1       2.691 -46.418 -42.210  0.00  0.00    -0.361 OA
ATOM     21  H   UNL d   1       2.381 -45.900 -42.348  0.00  0.00     0.217 HD
ENDBRANCH  10  20
TORSDOF 3
ENDMDL
