MODEL 1
REMARK VINA RESULT:    -8.711      0.000      0.000
REMARK INTER + INTRA:          -6.763
REMARK INTER:                 -10.243
REMARK INTRA:                   3.480
REMARK UNBOUND:                 3.731
REMARK  6 active torsions:
REMARK  status: ('A' for Active; 'I' for Inactive)
REMARK    1  A    between atoms: O_2  and  C_7 
REMARK    2  A    between atoms: O_3  and  C_13 
REMARK    3  A    between atoms: O_4  and  C_18 
REMARK    4  A    between atoms: O_5  and  C_19 
REMARK    5  A    between atoms: O_6  and  C_21 
REMARK    6  A    between atoms: C_8  and  C_12 
ROOT
ATOM      1  O   UNL d   1      17.837  27.331  27.254  0.00  0.00    -0.338 OA
ATOM      2  C   UNL d   1      16.521  28.236  26.584  0.00  0.00     0.156 A 
ATOM      3  C   UNL d   1      16.879  27.614  27.281  0.00  0.00     0.191 A 
ATOM      4  C   UNL d   1      17.122  28.576  25.861  0.00  0.00     0.079 A 
ATOM      5  C   UNL d   1      18.081  28.293  25.834  0.00  0.00     0.011 A 
ATOM      6  C   UNL d   1      18.439  27.671  26.530  0.00  0.00     0.081 A 
ATOM      7  C   UNL d   1      18.695  28.655  25.075  0.00  0.00     0.077 A 
ATOM      8  C   UNL d   1      19.435  27.368  26.516  0.00  0.00     0.074 A 
ATOM      9  C   UNL d   1      19.695  28.365  25.040  0.00  0.00     0.073 A 
ATOM     10  C   UNL d   1      20.067  27.717  25.765  0.00  0.00     0.071 A 
ENDROOT
BRANCH   3  11
ATOM     11  C   UNL d   1      16.277  27.274  28.004  0.00  0.00    -0.024 A 
ATOM     12  C   UNL d   1      15.822  26.389  27.901  0.00  0.00     0.049 A 
ATOM     13  C   UNL d   1      15.221  26.050  28.625  0.00  0.00     0.099 A 
ATOM     14  C   UNL d   1      15.075  26.594  29.450  0.00  0.00     0.098 A 
ATOM     15  C   UNL d   1      15.531  27.479  29.553  0.00  0.00     0.040 A 
ATOM     16  C   UNL d   1      16.132  27.818  28.830  0.00  0.00     0.013 A 
BRANCH  13  17
ATOM     17  O   UNL d   1      14.765  25.165  28.522  0.00  0.00    -0.358 OA
ATOM     18  H   UNL d   1      14.502  25.013  27.982  0.00  0.00     0.217 HD
ENDBRANCH  13  17
BRANCH  14  19
ATOM     19  O   UNL d   1      14.474  26.254  30.174  0.00  0.00    -0.358 OA
ATOM     20  H   UNL d   1      14.708  26.114  30.731  0.00  0.00     0.217 HD
ENDBRANCH  14  19
ENDBRANCH   3  11
BRANCH   2  21
ATOM     21  O   UNL d   1      15.562  28.518  26.611  0.00  0.00    -0.392 OA
ATOM     22  H   UNL d   1      15.142  28.162  26.897  0.00  0.00     0.210 HD
ENDBRANCH   2  21
BRANCH   7  23
ATOM     23  O   UNL d   1      18.326  29.277  24.384  0.00  0.00    -0.360 OA
ATOM     24  H   UNL d   1      17.731  29.447  24.406  0.00  0.00     0.217 HD
ENDBRANCH   7  23
BRANCH  10  25
ATOM     25  O   UNL d   1      21.026  27.433  25.741  0.00  0.00    -0.361 OA
ATOM     26  H   UNL d   1      21.214  26.949  26.079  0.00  0.00     0.217 HD
ENDBRANCH  10  25
TORSDOF 6
ENDMDL
MODEL 2
REMARK VINA RESULT:    -8.423     27.244     28.358
REMARK INTER + INTRA:          -6.416
REMARK INTER:                  -9.877
REMARK INTRA:                   3.461
REMARK UNBOUND:                 3.731
REMARK  6 active torsions:
REMARK  status: ('A' for Active; 'I' for Inactive)
REMARK    1  A    between atoms: O_2  and  C_7 
REMARK    2  A    between atoms: O_3  and  C_13 
REMARK    3  A    between atoms: O_4  and  C_18 
REMARK    4  A    between atoms: O_5  and  C_19 
REMARK    5  A    between atoms: O_6  and  C_21 
REMARK    6  A    between atoms: C_8  and  C_12 
ROOT
ATOM      1  O   UNL d   1      13.630  19.956   0.165  0.00  0.00    -0.338 OA
ATOM      2  C   UNL d   1      15.216  20.592   0.448  0.00  0.00     0.156 A 
ATOM      3  C   UNL d   1      14.249  20.738   0.237  0.00  0.00     0.191 A 
ATOM      4  C   UNL d   1      15.564  19.665   0.587  0.00  0.00     0.079 A 
ATOM      5  C   UNL d   1      14.945  18.883   0.515  0.00  0.00     0.011 A 
ATOM      6  C   UNL d   1      13.978  19.028   0.304  0.00  0.00     0.081 A 
ATOM      7  C   UNL d   1      15.321  17.923   0.662  0.00  0.00     0.077 A 
ATOM      8  C   UNL d   1      13.321  18.224   0.225  0.00  0.00     0.074 A 
ATOM      9  C   UNL d   1      14.682  17.104   0.588  0.00  0.00     0.073 A 
ATOM     10  C   UNL d   1      13.676  17.255   0.369  0.00  0.00     0.071 A 
ENDROOT
BRANCH   3  11
ATOM     11  C   UNL d   1      13.902  21.665   0.099  0.00  0.00    -0.024 A 
ATOM     12  C   UNL d   1      13.904  22.068  -0.816  0.00  0.00     0.049 A 
ATOM     13  C   UNL d   1      13.556  22.996  -0.955  0.00  0.00     0.099 A 
ATOM     14  C   UNL d   1      13.206  23.519  -0.178  0.00  0.00     0.098 A 
ATOM     15  C   UNL d   1      13.204  23.116   0.737  0.00  0.00     0.040 A 
ATOM     16  C   UNL d   1      13.552  22.189   0.875  0.00  0.00     0.013 A 
BRANCH  13  17
ATOM     17  O   UNL d   1      13.559  23.399  -1.870  0.00  0.00    -0.358 OA
ATOM     18  H   UNL d   1      14.091  23.596  -2.120  0.00  0.00     0.217 HD
ENDBRANCH  13  17
BRANCH  14  19
ATOM     19  O   UNL d   1      12.859  24.447  -0.317  0.00  0.00    -0.358 OA
ATOM     20  H   UNL d   1      12.253  24.564  -0.253  0.00  0.00     0.217 HD
ENDBRANCH  14  19
ENDBRANCH   3  11
BRANCH   2  21
ATOM     21  O   UNL d   1      15.835  21.374   0.520  0.00  0.00    -0.392 OA
ATOM     22  H   UNL d   1      16.070  21.534   1.072  0.00  0.00     0.210 HD
ENDBRANCH   2  21
BRANCH   7  23
ATOM     23  O   UNL d   1      16.289  17.790   0.872  0.00  0.00    -0.360 OA
ATOM     24  H   UNL d   1      16.498  17.887   1.447  0.00  0.00     0.217 HD
ENDBRANCH   7  23
BRANCH  10  25
ATOM     25  O   UNL d   1      13.054  16.475   0.296  0.00  0.00    -0.361 OA
ATOM     26  H   UNL d   1      12.688  16.325   0.772  0.00  0.00     0.217 HD
ENDBRANCH  10  25
TORSDOF 6
ENDMDL
MODEL 3
REMARK VINA RESULT:    -8.224      9.922     11.436
REMARK INTER + INTRA:          -6.175
REMARK INTER:                 -10.002
REMARK INTRA:                   3.826
REMARK UNBOUND:                 3.731
REMARK  6 active torsions:
REMARK  status: ('A' for Active; 'I' for Inactive)
REMARK    1  A    between atoms: O_2  and  C_7 
REMARK    2  A    between atoms: O_3  and  C_13 
REMARK    3  A    between atoms: O_4  and  C_18 
REMARK    4  A    between atoms: O_5  and  C_19 
REMARK    5  A    between atoms: O_6  and  C_21 
REMARK    6  A    between atoms: C_8  and  C_12 
ROOT
ATOM      1  O   UNL d   1      20.317  21.692  35.300  0.00  0.00    -0.338 OA
ATOM      2  C   UNL d   1      21.715  21.360  34.333  0.00  0.00     0.156 A 
ATOM      3  C   UNL d   1      21.302  21.773  35.144  0.00  0.00     0.191 A 
ATOM      4  C   UNL d   1      21.145  20.865  33.678  0.00  0.00     0.079 A 
ATOM      5  C   UNL d   1      20.160  20.783  33.834  0.00  0.00     0.011 A 
ATOM      6  C   UNL d   1      19.747  21.197  34.645  0.00  0.00     0.081 A 
ATOM      7  C   UNL d   1      19.579  20.265  33.143  0.00  0.00     0.077 A 
ATOM      8  C   UNL d   1      18.723  21.120  34.821  0.00  0.00     0.074 A 
ATOM      9  C   UNL d   1      18.553  20.176  33.299  0.00  0.00     0.073 A 
ATOM     10  C   UNL d   1      18.122  20.606  34.143  0.00  0.00     0.071 A 
ENDROOT
BRANCH   3  11
ATOM     11  C   UNL d   1      21.872  22.268  35.799  0.00  0.00    -0.024 A 
ATOM     12  C   UNL d   1      22.602  21.790  36.289  0.00  0.00     0.049 A 
ATOM     13  C   UNL d   1      23.172  22.285  36.944  0.00  0.00     0.099 A 
ATOM     14  C   UNL d   1      23.014  23.258  37.110  0.00  0.00     0.098 A 
ATOM     15  C   UNL d   1      22.284  23.736  36.621  0.00  0.00     0.040 A 
ATOM     16  C   UNL d   1      21.714  23.241  35.966  0.00  0.00     0.013 A 
BRANCH  13  17
ATOM     17  O   UNL d   1      23.902  21.807  37.433  0.00  0.00    -0.358 OA
ATOM     18  H   UNL d   1      23.989  21.199  37.343  0.00  0.00     0.217 HD
ENDBRANCH  13  17
BRANCH  14  19
ATOM     19  O   UNL d   1      23.584  23.753  37.765  0.00  0.00    -0.358 OA
ATOM     20  H   UNL d   1      23.697  23.510  38.324  0.00  0.00     0.217 HD
ENDBRANCH  14  19
ENDBRANCH   3  11
BRANCH   2  21
ATOM     21  O   UNL d   1      22.700  21.442  34.177  0.00  0.00    -0.392 OA
ATOM     22  H   UNL d   1      22.937  21.974  33.965  0.00  0.00     0.210 HD
ENDBRANCH   2  21
BRANCH   7  23
ATOM     23  O   UNL d   1      20.003  19.856  32.335  0.00  0.00    -0.360 OA
ATOM     24  H   UNL d   1      19.671  19.486  31.965  0.00  0.00     0.217 HD
ENDBRANCH   7  23
BRANCH  10  25
ATOM     25  O   UNL d   1      17.138  20.526  34.302  0.00  0.00    -0.361 OA
ATOM     26  H   UNL d   1      16.758  20.388  33.833  0.00  0.00     0.217 HD
ENDBRANCH  10  25
TORSDOF 6
ENDMDL
MODEL 4
REMARK VINA RESULT:    -8.006     18.349     20.343
REMARK INTER + INTRA:          -5.913
REMARK INTER:                  -9.479
REMARK INTRA:                   3.566
REMARK UNBOUND:                 3.731
REMARK  6 active torsions:
REMARK  status: ('A' for Active; 'I' for Inactive)
REMARK    1  A    between atoms: O_2  and  C_7 
REMARK    2  A    between atoms: O_3  and  C_13 
REMARK    3  A    between atoms: O_4  and  C_18 
REMARK    4  A    between atoms: O_5  and  C_19 
REMARK    5  A    between atoms: O_6  and  C_21 
REMARK    6  A    between atoms: C_8  and  C_12 
ROOT
ATOM      1  O   UNL d   1       7.779  15.610  39.563  0.00  0.00    -0.338 OA
ATOM      2  C   UNL d   1       8.749  14.808  40.752  0.00  0.00     0.156 A 
ATOM      3  C   UNL d   1       8.422  15.652  40.328  0.00  0.00     0.191 A 
ATOM      4  C   UNL d   1       8.435  13.922  40.411  0.00  0.00     0.079 A 
ATOM      5  C   UNL d   1       7.793  13.880  39.646  0.00  0.00     0.011 A 
ATOM      6  C   UNL d   1       7.465  14.724  39.222  0.00  0.00     0.081 A 
ATOM      7  C   UNL d   1       7.474  12.951  39.301  0.00  0.00     0.077 A 
ATOM      8  C   UNL d   1       6.796  14.697  38.424  0.00  0.00     0.074 A 
ATOM      9  C   UNL d   1       6.805  12.899  38.504  0.00  0.00     0.073 A 
ATOM     10  C   UNL d   1       6.464  13.778  38.063  0.00  0.00     0.071 A 
ENDROOT
BRANCH   3  11
ATOM     11  C   UNL d   1       8.736  16.538  40.669  0.00  0.00    -0.024 A 
ATOM     12  C   UNL d   1       8.381  16.896  41.533  0.00  0.00     0.049 A 
ATOM     13  C   UNL d   1       8.695  17.782  41.874  0.00  0.00     0.099 A 
ATOM     14  C   UNL d   1       9.365  18.310  41.351  0.00  0.00     0.098 A 
ATOM     15  C   UNL d   1       9.720  17.951  40.488  0.00  0.00     0.040 A 
ATOM     16  C   UNL d   1       9.406  17.066  40.147  0.00  0.00     0.013 A 
BRANCH  13  17
ATOM     17  O   UNL d   1       8.340  18.140  42.737  0.00  0.00    -0.358 OA
ATOM     18  H   UNL d   1       8.471  17.851  43.270  0.00  0.00     0.217 HD
ENDBRANCH  13  17
BRANCH  14  19
ATOM     19  O   UNL d   1       9.679  19.195  41.693  0.00  0.00    -0.358 OA
ATOM     20  H   UNL d   1       9.639  19.698  41.332  0.00  0.00     0.217 HD
ENDBRANCH  14  19
ENDBRANCH   3  11
BRANCH   2  21
ATOM     21  O   UNL d   1       9.392  14.850  41.518  0.00  0.00    -0.392 OA
ATOM     22  H   UNL d   1       9.693  14.338  41.698  0.00  0.00     0.210 HD
ENDBRANCH   2  21
BRANCH   7  23
ATOM     23  O   UNL d   1       7.809  12.113  39.733  0.00  0.00    -0.360 OA
ATOM     24  H   UNL d   1       7.580  11.934  40.281  0.00  0.00     0.217 HD
ENDBRANCH   7  23
BRANCH  10  25
ATOM     25  O   UNL d   1       5.822  13.740  37.297  0.00  0.00    -0.361 OA
ATOM     26  H   UNL d   1       5.738  14.237  36.938  0.00  0.00     0.217 HD
ENDBRANCH  10  25
TORSDOF 6
ENDMDL
MODEL 5
REMARK VINA RESULT:    -7.974      9.062     11.326
REMARK INTER + INTRA:          -5.874
REMARK INTER:                  -9.336
REMARK INTRA:                   3.462
REMARK UNBOUND:                 3.731
REMARK  6 active torsions:
REMARK  status: ('A' for Active; 'I' for Inactive)
REMARK    1  A    between atoms: O_2  and  C_7 
REMARK    2  A    between atoms: O_3  and  C_13 
REMARK    3  A    between atoms: O_4  and  C_18 
REMARK    4  A    between atoms: O_5  and  C_19 
REMARK    5  A    between atoms: O_6  and  C_21 
REMARK    6  A    between atoms: C_8  and  C_12 
ROOT
ATOM      1  O   UNL d   1      18.668  21.042  35.126  0.00  0.00    -0.338 OA
ATOM      2  C   UNL d   1      19.635  20.138  34.008  0.00  0.00     0.156 A 
ATOM      3  C   UNL d   1      19.501  20.948  34.579  0.00  0.00     0.191 A 
ATOM      4  C   UNL d   1      18.938  19.422  33.984  0.00  0.00     0.079 A 
ATOM      5  C   UNL d   1      18.106  19.516  34.531  0.00  0.00     0.011 A 
ATOM      6  C   UNL d   1      17.971  20.325  35.102  0.00  0.00     0.081 A 
ATOM      7  C   UNL d   1      17.388  18.762  34.495  0.00  0.00     0.077 A 
ATOM      8  C   UNL d   1      17.109  20.437  35.677  0.00  0.00     0.074 A 
ATOM      9  C   UNL d   1      16.519  18.852  35.062  0.00  0.00     0.073 A 
ATOM     10  C   UNL d   1      16.379  19.696  35.656  0.00  0.00     0.071 A 
ENDROOT
BRANCH   3  11
ATOM     11  C   UNL d   1      20.198  21.664  34.603  0.00  0.00    -0.024 A 
ATOM     12  C   UNL d   1      20.156  22.425  33.955  0.00  0.00     0.049 A 
ATOM     13  C   UNL d   1      20.854  23.141  33.980  0.00  0.00     0.099 A 
ATOM     14  C   UNL d   1      21.593  23.096  34.652  0.00  0.00     0.098 A 
ATOM     15  C   UNL d   1      21.635  22.336  35.300  0.00  0.00     0.040 A 
ATOM     16  C   UNL d   1      20.937  21.620  35.275  0.00  0.00     0.013 A 
BRANCH  13  17
ATOM     17  O   UNL d   1      20.812  23.901  33.332  0.00  0.00    -0.358 OA
ATOM     18  H   UNL d   1      20.746  24.482  33.539  0.00  0.00     0.217 HD
ENDBRANCH  13  17
BRANCH  14  19
ATOM     19  O   UNL d   1      22.290  23.813  34.676  0.00  0.00    -0.358 OA
ATOM     20  H   UNL d   1      22.412  24.109  35.207  0.00  0.00     0.217 HD
ENDBRANCH  14  19
ENDBRANCH   3  11
BRANCH   2  21
ATOM     21  O   UNL d   1      20.467  20.044  33.462  0.00  0.00    -0.392 OA
ATOM     22  H   UNL d   1      20.688  19.481  33.327  0.00  0.00     0.210 HD
ENDBRANCH   2  21
BRANCH   7  23
ATOM     23  O   UNL d   1      17.533  17.956  33.921  0.00  0.00    -0.360 OA
ATOM     24  H   UNL d   1      17.656  17.408  34.182  0.00  0.00     0.217 HD
ENDBRANCH   7  23
BRANCH  10  25
ATOM     25  O   UNL d   1      15.548  19.793  36.204  0.00  0.00    -0.361 OA
ATOM     26  H   UNL d   1      15.192  20.296  36.143  0.00  0.00     0.217 HD
ENDBRANCH  10  25
TORSDOF 6
ENDMDL
