MODEL 1
REMARK VINA RESULT:    -8.578      0.000      0.000
REMARK INTER + INTRA:          -8.073
REMARK INTER:                  -9.932
REMARK INTRA:                   1.859
REMARK UNBOUND:                 2.260
REMARK  5 active torsions:
REMARK  status: ('A' for Active; 'I' for Inactive)
REMARK    1  A    between atoms: O_2  and  C_13 
REMARK    2  A    between atoms: O_3  and  C_19 
REMARK    3  A    between atoms: O_5  and  C_17 
REMARK    4  A    between atoms: O_6  and  C_21 
REMARK    5  A    between atoms: C_8  and  C_10 
ROOT
ATOM      1  O   UNL d   1      13.299  19.864   0.082  0.00  0.00    -0.309 OA
ATOM      2  O   UNL d   1      16.058  19.195   1.052  0.00  0.00    -0.287 OA
ATOM      3  C   UNL d   1      14.480  18.687   0.552  0.00  0.00     0.081 A 
ATOM      4  C   UNL d   1      13.958  20.595   0.259  0.00  0.00     0.090 A 
ATOM      5  C   UNL d   1      13.560  18.910   0.228  0.00  0.00     0.095 A 
ATOM      6  C   UNL d   1      15.139  19.418   0.729  0.00  0.00     0.190 A 
ATOM      7  C   UNL d   1      14.878  20.372   0.583  0.00  0.00     0.094 A 
ATOM      8  C   UNL d   1      14.766  17.698   0.708  0.00  0.00     0.085 A 
ATOM      9  C   UNL d   1      12.863  18.159   0.040  0.00  0.00     0.075 A 
ATOM     10  C   UNL d   1      13.128  17.163   0.189  0.00  0.00     0.071 A 
ATOM     11  C   UNL d   1      14.085  16.931   0.526  0.00  0.00     0.074 A 
ENDROOT
BRANCH   4  12
ATOM     12  C   UNL d   1      13.697  21.549   0.113  0.00  0.00     0.001 A 
ATOM     13  C   UNL d   1      13.607  21.907  -0.816  0.00  0.00     0.054 A 
ATOM     14  C   UNL d   1      13.346  22.861  -0.962  0.00  0.00     0.102 A 
ATOM     15  C   UNL d   1      13.175  23.458  -0.179  0.00  0.00     0.099 A 
ATOM     16  C   UNL d   1      13.264  23.101   0.751  0.00  0.00     0.040 A 
ATOM     17  C   UNL d   1      13.525  22.146   0.897  0.00  0.00     0.017 A 
BRANCH  14  18
ATOM     18  O   UNL d   1      13.257  23.218  -1.892  0.00  0.00    -0.353 OA
ATOM     19  C   UNL d   1      13.561  22.669  -2.670  0.00  0.00     0.210 C 
ENDBRANCH  14  18
BRANCH  15  20
ATOM     20  O   UNL d   1      12.913  24.412  -0.325  0.00  0.00    -0.358 OA
ATOM     21  H   UNL d   1      13.199  24.748  -0.760  0.00  0.00     0.217 HD
ENDBRANCH  15  20
ENDBRANCH   4  12
BRANCH   8  22
ATOM     22  O   UNL d   1      15.689  17.487   1.032  0.00  0.00    -0.360 OA
ATOM     23  H   UNL d   1      15.814  16.927   1.266  0.00  0.00     0.217 HD
ENDBRANCH   8  22
BRANCH  10  24
ATOM     24  O   UNL d   1      12.466  16.434   0.011  0.00  0.00    -0.361 OA
ATOM     25  H   UNL d   1      11.977  16.543  -0.354  0.00  0.00     0.217 HD
ENDBRANCH  10  24
TORSDOF 5
ENDMDL
MODEL 2
REMARK VINA RESULT:    -8.359     40.265     41.085
REMARK INTER + INTRA:          -7.810
REMARK INTER:                  -9.848
REMARK INTRA:                   2.038
REMARK UNBOUND:                 2.260
REMARK  5 active torsions:
REMARK  status: ('A' for Active; 'I' for Inactive)
REMARK    1  A    between atoms: O_2  and  C_13 
REMARK    2  A    between atoms: O_3  and  C_19 
REMARK    3  A    between atoms: O_5  and  C_17 
REMARK    4  A    between atoms: O_6  and  C_21 
REMARK    5  A    between atoms: C_8  and  C_10 
ROOT
ATOM      1  O   UNL d   1       7.845  15.513  39.609  0.00  0.00    -0.309 OA
ATOM      2  O   UNL d   1       8.681  12.929  40.883  0.00  0.00    -0.287 OA
ATOM      3  C   UNL d   1       7.778  13.784  39.677  0.00  0.00     0.081 A 
ATOM      4  C   UNL d   1       8.469  15.520  40.391  0.00  0.00     0.090 A 
ATOM      5  C   UNL d   1       7.500  14.645  39.253  0.00  0.00     0.095 A 
ATOM      6  C   UNL d   1       8.402  13.791  40.459  0.00  0.00     0.190 A 
ATOM      7  C   UNL d   1       8.748  14.659  40.815  0.00  0.00     0.094 A 
ATOM      8  C   UNL d   1       7.427  12.873  39.316  0.00  0.00     0.085 A 
ATOM      9  C   UNL d   1       6.850  14.655  38.438  0.00  0.00     0.075 A 
ATOM     10  C   UNL d   1       6.486  13.755  38.061  0.00  0.00     0.071 A 
ATOM     11  C   UNL d   1       6.777  12.858  38.503  0.00  0.00     0.074 A 
ENDROOT
BRANCH   4  12
ATOM     12  C   UNL d   1       8.814  16.388  40.748  0.00  0.00     0.001 A 
ATOM     13  C   UNL d   1       8.775  16.576  41.729  0.00  0.00     0.054 A 
ATOM     14  C   UNL d   1       9.121  17.444  42.086  0.00  0.00     0.102 A 
ATOM     15  C   UNL d   1       9.505  18.124  41.461  0.00  0.00     0.099 A 
ATOM     16  C   UNL d   1       9.544  17.936  40.480  0.00  0.00     0.040 A 
ATOM     17  C   UNL d   1       9.199  17.068  40.123  0.00  0.00     0.017 A 
BRANCH  14  18
ATOM     18  O   UNL d   1       9.082  17.632  43.067  0.00  0.00    -0.353 OA
ATOM     19  C   UNL d   1       9.186  16.885  43.724  0.00  0.00     0.210 C 
ENDBRANCH  14  18
BRANCH  15  20
ATOM     20  O   UNL d   1       9.851  18.992  41.818  0.00  0.00    -0.358 OA
ATOM     21  H   UNL d   1       9.543  19.518  41.704  0.00  0.00     0.217 HD
ENDBRANCH  15  20
ENDBRANCH   4  12
BRANCH   8  22
ATOM     22  O   UNL d   1       7.712  12.017  39.749  0.00  0.00    -0.360 OA
ATOM     23  H   UNL d   1       8.280  11.791  39.644  0.00  0.00     0.217 HD
ENDBRANCH   8  22
BRANCH  10  24
ATOM     24  O   UNL d   1       5.862  13.753  37.279  0.00  0.00    -0.361 OA
ATOM     25  H   UNL d   1       5.786  14.268  36.942  0.00  0.00     0.217 HD
ENDBRANCH  10  24
TORSDOF 5
ENDMDL
MODEL 3
REMARK VINA RESULT:    -8.183     33.819     34.875
REMARK INTER + INTRA:          -7.597
REMARK INTER:                  -9.620
REMARK INTRA:                   2.022
REMARK UNBOUND:                 2.260
REMARK  5 active torsions:
REMARK  status: ('A' for Active; 'I' for Inactive)
REMARK    1  A    between atoms: O_2  and  C_13 
REMARK    2  A    between atoms: O_3  and  C_19 
REMARK    3  A    between atoms: O_5  and  C_17 
REMARK    4  A    between atoms: O_6  and  C_21 
REMARK    5  A    between atoms: C_8  and  C_10 
ROOT
ATOM      1  O   UNL d   1      20.967  21.532  33.419  0.00  0.00    -0.309 OA
ATOM      2  O   UNL d   1      18.808  19.718  34.442  0.00  0.00    -0.287 OA
ATOM      3  C   UNL d   1      19.759  20.325  33.129  0.00  0.00     0.081 A 
ATOM      4  C   UNL d   1      20.735  21.530  34.392  0.00  0.00     0.090 A 
ATOM      5  C   UNL d   1      20.479  20.929  32.788  0.00  0.00     0.095 A 
ATOM      6  C   UNL d   1      19.527  20.323  34.101  0.00  0.00     0.190 A 
ATOM      7  C   UNL d   1      20.015  20.925  34.733  0.00  0.00     0.094 A 
ATOM      8  C   UNL d   1      19.243  19.692  32.483  0.00  0.00     0.085 A 
ATOM      9  C   UNL d   1      20.732  20.943  31.777  0.00  0.00     0.075 A 
ATOM     10  C   UNL d   1      20.229  20.318  31.113  0.00  0.00     0.071 A 
ATOM     11  C   UNL d   1      19.480  19.688  31.468  0.00  0.00     0.074 A 
ENDROOT
BRANCH   4  12
ATOM     12  C   UNL d   1      21.222  22.133  35.023  0.00  0.00     0.001 A 
ATOM     13  C   UNL d   1      22.222  22.126  35.050  0.00  0.00     0.054 A 
ATOM     14  C   UNL d   1      22.709  22.728  35.682  0.00  0.00     0.102 A 
ATOM     15  C   UNL d   1      22.197  23.338  36.287  0.00  0.00     0.099 A 
ATOM     16  C   UNL d   1      21.198  23.346  36.260  0.00  0.00     0.040 A 
ATOM     17  C   UNL d   1      20.710  22.743  35.628  0.00  0.00     0.017 A 
BRANCH  14  18
ATOM     18  O   UNL d   1      23.709  22.721  35.709  0.00  0.00    -0.353 OA
ATOM     19  C   UNL d   1      24.230  22.561  34.871  0.00  0.00     0.210 C 
ENDBRANCH  14  18
BRANCH  15  20
ATOM     20  O   UNL d   1      22.685  23.941  36.918  0.00  0.00    -0.358 OA
ATOM     21  H   UNL d   1      23.301  23.898  36.975  0.00  0.00     0.217 HD
ENDBRANCH  15  20
ENDBRANCH   4  12
BRANCH   8  22
ATOM     22  O   UNL d   1      18.525  19.091  32.835  0.00  0.00    -0.360 OA
ATOM     23  H   UNL d   1      17.933  19.195  32.684  0.00  0.00     0.217 HD
ENDBRANCH   8  22
BRANCH  10  24
ATOM     24  O   UNL d   1      20.464  20.323  30.141  0.00  0.00    -0.361 OA
ATOM     25  H   UNL d   1      20.106  20.628  29.737  0.00  0.00     0.217 HD
ENDBRANCH  10  24
TORSDOF 5
ENDMDL
MODEL 4
REMARK VINA RESULT:    -8.173     27.080     28.235
REMARK INTER + INTRA:          -7.586
REMARK INTER:                  -9.484
REMARK INTRA:                   1.899
REMARK UNBOUND:                 2.260
REMARK  5 active torsions:
REMARK  status: ('A' for Active; 'I' for Inactive)
REMARK    1  A    between atoms: O_2  and  C_13 
REMARK    2  A    between atoms: O_3  and  C_19 
REMARK    3  A    between atoms: O_5  and  C_17 
REMARK    4  A    between atoms: O_6  and  C_21 
REMARK    5  A    between atoms: C_8  and  C_10 
ROOT
ATOM      1  O   UNL d   1      17.074  27.291  26.704  0.00  0.00    -0.309 OA
ATOM      2  O   UNL d   1      18.117  28.547  29.220  0.00  0.00    -0.287 OA
ATOM      3  C   UNL d   1      17.035  27.451  28.428  0.00  0.00     0.081 A 
ATOM      4  C   UNL d   1      17.808  27.968  26.657  0.00  0.00     0.090 A 
ATOM      5  C   UNL d   1      16.688  27.032  27.589  0.00  0.00     0.095 A 
ATOM      6  C   UNL d   1      17.769  28.129  28.381  0.00  0.00     0.190 A 
ATOM      7  C   UNL d   1      18.155  28.387  27.496  0.00  0.00     0.094 A 
ATOM      8  C   UNL d   1      16.643  27.191  29.357  0.00  0.00     0.085 A 
ATOM      9  C   UNL d   1      15.924  26.324  27.622  0.00  0.00     0.075 A 
ATOM     10  C   UNL d   1      15.516  26.050  28.540  0.00  0.00     0.071 A 
ATOM     11  C   UNL d   1      15.878  26.486  29.413  0.00  0.00     0.074 A 
ENDROOT
BRANCH   4  12
ATOM     12  C   UNL d   1      18.194  28.227  25.772  0.00  0.00     0.001 A 
ATOM     13  C   UNL d   1      19.161  28.061  25.580  0.00  0.00     0.054 A 
ATOM     14  C   UNL d   1      19.547  28.320  24.695  0.00  0.00     0.102 A 
ATOM     15  C   UNL d   1      18.966  28.744  24.001  0.00  0.00     0.099 A 
ATOM     16  C   UNL d   1      17.999  28.911  24.192  0.00  0.00     0.040 A 
ATOM     17  C   UNL d   1      17.613  28.652  25.078  0.00  0.00     0.017 A 
BRANCH  14  18
ATOM     18  O   UNL d   1      20.515  28.153  24.504  0.00  0.00    -0.353 OA
ATOM     19  C   UNL d   1      21.083  27.678  25.175  0.00  0.00     0.210 C 
ENDBRANCH  14  18
BRANCH  15  20
ATOM     20  O   UNL d   1      19.352  29.003  23.116  0.00  0.00    -0.358 OA
ATOM     21  H   UNL d   1      19.143  29.507  22.821  0.00  0.00     0.217 HD
ENDBRANCH  15  20
ENDBRANCH   4  12
BRANCH   8  22
ATOM     22  O   UNL d   1      16.999  27.617  30.189  0.00  0.00    -0.360 OA
ATOM     23  H   UNL d   1      17.609  27.689  30.263  0.00  0.00     0.217 HD
ENDBRANCH   8  22
BRANCH  10  24
ATOM     24  O   UNL d   1      14.782  25.372  28.582  0.00  0.00    -0.361 OA
ATOM     25  H   UNL d   1      14.915  24.768  28.532  0.00  0.00     0.217 HD
ENDBRANCH  10  24
TORSDOF 5
ENDMDL
MODEL 5
REMARK VINA RESULT:    -8.031     27.383     28.551
REMARK INTER + INTRA:          -7.415
REMARK INTER:                  -9.234
REMARK INTRA:                   1.819
REMARK UNBOUND:                 2.260
REMARK  5 active torsions:
REMARK  status: ('A' for Active; 'I' for Inactive)
REMARK    1  A    between atoms: O_2  and  C_13 
REMARK    2  A    between atoms: O_3  and  C_19 
REMARK    3  A    between atoms: O_5  and  C_17 
REMARK    4  A    between atoms: O_6  and  C_21 
REMARK    5  A    between atoms: C_8  and  C_10 
ROOT
ATOM      1  O   UNL d   1      17.705  26.445  27.133  0.00  0.00    -0.309 OA
ATOM      2  O   UNL d   1      18.123  28.072  29.619  0.00  0.00    -0.287 OA
ATOM      3  C   UNL d   1      17.113  27.061  28.640  0.00  0.00     0.081 A 
ATOM      4  C   UNL d   1      18.575  26.914  27.283  0.00  0.00     0.090 A 
ATOM      5  C   UNL d   1      16.974  26.518  27.812  0.00  0.00     0.095 A 
ATOM      6  C   UNL d   1      17.983  27.530  28.790  0.00  0.00     0.190 A 
ATOM      7  C   UNL d   1      18.714  27.456  28.112  0.00  0.00     0.094 A 
ATOM      8  C   UNL d   1      16.361  27.146  29.356  0.00  0.00     0.085 A 
ATOM      9  C   UNL d   1      16.073  26.024  27.641  0.00  0.00     0.075 A 
ATOM     10  C   UNL d   1      15.307  26.095  28.344  0.00  0.00     0.071 A 
ATOM     11  C   UNL d   1      15.452  26.660  29.206  0.00  0.00     0.074 A 
ENDROOT
BRANCH   4  12
ATOM     12  C   UNL d   1      19.306  26.841  26.605  0.00  0.00     0.001 A 
ATOM     13  C   UNL d   1      19.362  27.502  25.857  0.00  0.00     0.054 A 
ATOM     14  C   UNL d   1      20.093  27.429  25.178  0.00  0.00     0.102 A 
ATOM     15  C   UNL d   1      20.768  26.695  25.248  0.00  0.00     0.099 A 
ATOM     16  C   UNL d   1      20.712  26.033  25.996  0.00  0.00     0.040 A 
ATOM     17  C   UNL d   1      19.981  26.106  26.674  0.00  0.00     0.017 A 
BRANCH  14  18
ATOM     18  O   UNL d   1      20.149  28.090  24.430  0.00  0.00    -0.353 OA
ATOM     19  C   UNL d   1      19.438  28.785  24.323  0.00  0.00     0.210 C 
ENDBRANCH  14  18
BRANCH  15  20
ATOM     20  O   UNL d   1      21.498  26.621  24.569  0.00  0.00    -0.358 OA
ATOM     21  H   UNL d   1      21.994  26.993  24.606  0.00  0.00     0.217 HD
ENDBRANCH  15  20
ENDBRANCH   4  12
BRANCH   8  22
ATOM     22  O   UNL d   1      16.511  27.691  30.180  0.00  0.00    -0.360 OA
ATOM     23  H   UNL d   1      16.109  27.658  30.651  0.00  0.00     0.217 HD
ENDBRANCH   8  22
BRANCH  10  24
ATOM     24  O   UNL d   1      14.438  25.624  28.190  0.00  0.00    -0.361 OA
ATOM     25  H   UNL d   1      13.997  25.637  28.626  0.00  0.00     0.217 HD
ENDBRANCH  10  24
TORSDOF 5
ENDMDL
