MODEL 1
REMARK VINA RESULT:    -9.392      0.000      0.000
REMARK INTER + INTRA:          -5.037
REMARK INTER:                 -15.199
REMARK INTRA:                  10.162
REMARK UNBOUND:                 9.846
REMARK  14 active torsions:
REMARK  status: ('A' for Active; 'I' for Inactive)
REMARK    1  A    between atoms: C_15  and  O_1 
REMARK    2  A    between atoms: C_18  and  O_1 
REMARK    3  A    between atoms: C_16  and  O_4 
REMARK    4  A    between atoms: C_20  and  O_5 
REMARK    5  A    between atoms: O_5  and  C_27 
REMARK    6  A    between atoms: C_17  and  O_6 
REMARK    7  A    between atoms: C_19  and  O_7 
REMARK    8  A    between atoms: C_22  and  O_8 
REMARK    9  A    between atoms: C_23  and  O_9 
REMARK   10  A    between atoms: O_10  and  C_25 
REMARK   11  A    between atoms: O_12  and  C_31 
REMARK   12  A    between atoms: O_14  and  C_41 
REMARK   13  A    between atoms: C_21  and  C_25 
REMARK   14  A    between atoms: C_34  and  C_36 
ROOT
ATOM      1  O   UNL d   1      20.940  26.254  25.732  0.00  0.00    -0.348 OA
ATOM      2  C   UNL d   1      22.311  26.961  26.520  0.00  0.00     0.211 A 
ATOM      3  C   UNL d   1      22.727  26.056  26.608  0.00  0.00     0.183 A 
ATOM      4  C   UNL d   1      22.249  25.250  26.258  0.00  0.00     0.180 A 
ATOM      5  C   UNL d   1      21.418  27.060  26.082  0.00  0.00     0.298 A 
ATOM      6  C   UNL d   1      21.356  25.349  25.820  0.00  0.00     0.179 A 
ENDROOT
BRANCH   5   7
ATOM      7  O   UNL d   1      21.002  27.965  25.994  0.00  0.00    -0.318 OA
BRANCH   7   8
ATOM      8  C   UNL d   1      20.008  28.054  25.925  0.00  0.00     0.077 A 
ATOM      9  C   UNL d   1      19.395  27.708  26.693  0.00  0.00     0.075 A 
ATOM     10  C   UNL d   1      18.362  27.806  26.611  0.00  0.00     0.095 A 
ATOM     11  O   UNL d   1      17.781  27.471  27.352  0.00  0.00    -0.309 OA
ATOM     12  C   UNL d   1      17.949  28.228  25.804  0.00  0.00     0.081 A 
ATOM     13  C   UNL d   1      16.787  27.558  27.287  0.00  0.00     0.090 A 
ATOM     14  C   UNL d   1      16.374  27.980  26.480  0.00  0.00     0.094 A 
ATOM     15  C   UNL d   1      16.955  28.316  25.739  0.00  0.00     0.190 A 
ATOM     16  O   UNL d   1      16.542  28.738  24.932  0.00  0.00    -0.287 OA
ATOM     17  C   UNL d   1      18.542  28.582  25.024  0.00  0.00     0.085 A 
ATOM     18  C   UNL d   1      19.577  28.495  25.084  0.00  0.00     0.074 A 
BRANCH  13  19
ATOM     19  C   UNL d   1      16.205  27.223  28.029  0.00  0.00    -0.002 A 
ATOM     20  C   UNL d   1      15.878  26.278  28.020  0.00  0.00     0.017 A 
ATOM     21  C   UNL d   1      15.297  25.944  28.762  0.00  0.00     0.037 A 
ATOM     22  C   UNL d   1      15.042  26.553  29.512  0.00  0.00     0.065 A 
ATOM     23  C   UNL d   1      15.369  27.498  29.521  0.00  0.00     0.037 A 
ATOM     24  C   UNL d   1      15.951  27.834  28.779  0.00  0.00     0.017 A 
BRANCH  22  25
ATOM     25  O   UNL d   1      14.461  26.218  30.253  0.00  0.00    -0.361 OA
ATOM     26  H   UNL d   1      14.672  25.782  30.640  0.00  0.00     0.217 HD
ENDBRANCH  22  25
ENDBRANCH  13  19
BRANCH  17  27
ATOM     27  O   UNL d   1      18.118  29.003  24.221  0.00  0.00    -0.360 OA
ATOM     28  H   UNL d   1      18.311  29.558  24.024  0.00  0.00     0.217 HD
ENDBRANCH  17  27
ENDBRANCH   7   8
ENDBRANCH   5   7
BRANCH   2  29
ATOM     29  O   UNL d   1      22.789  27.767  26.869  0.00  0.00    -0.346 OA
BRANCH  29  30
ATOM     30  C   UNL d   1      23.477  28.224  26.306  0.00  0.00     0.292 A 
ATOM     31  O   UNL d   1      23.446  28.137  25.310  0.00  0.00    -0.351 OA
ATOM     32  C   UNL d   1      24.133  28.594  24.746  0.00  0.00     0.152 A 
ATOM     33  C   UNL d   1      24.852  29.139  25.178  0.00  0.00     0.178 A 
ATOM     34  C   UNL d   1      24.103  28.507  23.751  0.00  0.00     0.042 C 
ATOM     35  C   UNL d   1      24.883  29.227  26.174  0.00  0.00     0.183 A 
ATOM     36  C   UNL d   1      24.195  28.769  26.738  0.00  0.00     0.204 A 
BRANCH  33  37
ATOM     37  O   UNL d   1      25.540  29.596  24.615  0.00  0.00    -0.390 OA
ATOM     38  H   UNL d   1      26.024  29.277  24.397  0.00  0.00     0.210 HD
ENDBRANCH  33  37
BRANCH  35  39
ATOM     39  O   UNL d   1      25.602  29.771  26.606  0.00  0.00    -0.390 OA
ATOM     40  H   UNL d   1      26.195  29.680  26.452  0.00  0.00     0.210 HD
ENDBRANCH  35  39
BRANCH  36  41
ATOM     41  O   UNL d   1      24.226  28.857  27.733  0.00  0.00    -0.388 OA
ATOM     42  H   UNL d   1      24.762  28.988  28.017  0.00  0.00     0.210 HD
ENDBRANCH  36  41
ENDBRANCH  29  30
ENDBRANCH   2  29
BRANCH   6  43
ATOM     43  C   UNL d   1      20.878  24.543  25.470  0.00  0.00     0.198 C 
BRANCH  43  44
ATOM     44  O   UNL d   1      20.717  24.445  24.488  0.00  0.00    -0.398 OA
ATOM     45  H   UNL d   1      20.983  24.838  24.089  0.00  0.00     0.209 HD
ENDBRANCH  43  44
ENDBRANCH   6  43
BRANCH   3  46
ATOM     46  O   UNL d   1      23.621  25.957  27.045  0.00  0.00    -0.390 OA
ATOM     47  H   UNL d   1      24.061  26.383  26.951  0.00  0.00     0.210 HD
ENDBRANCH   3  46
BRANCH   4  48
ATOM     48  O   UNL d   1      22.665  24.345  26.346  0.00  0.00    -0.390 OA
ATOM     49  H   UNL d   1      23.037  24.220  26.827  0.00  0.00     0.210 HD
ENDBRANCH   4  48
TORSDOF 14
ENDMDL
MODEL 2
REMARK VINA RESULT:    -9.318      8.186     10.621
REMARK INTER + INTRA:          -4.919
REMARK INTER:                 -14.860
REMARK INTRA:                   9.941
REMARK UNBOUND:                 9.846
REMARK  14 active torsions:
REMARK  status: ('A' for Active; 'I' for Inactive)
REMARK    1  A    between atoms: C_15  and  O_1 
REMARK    2  A    between atoms: C_18  and  O_1 
REMARK    3  A    between atoms: C_16  and  O_4 
REMARK    4  A    between atoms: C_20  and  O_5 
REMARK    5  A    between atoms: O_5  and  C_27 
REMARK    6  A    between atoms: C_17  and  O_6 
REMARK    7  A    between atoms: C_19  and  O_7 
REMARK    8  A    between atoms: C_22  and  O_8 
REMARK    9  A    between atoms: C_23  and  O_9 
REMARK   10  A    between atoms: O_10  and  C_25 
REMARK   11  A    between atoms: O_12  and  C_31 
REMARK   12  A    between atoms: O_14  and  C_41 
REMARK   13  A    between atoms: C_21  and  C_25 
REMARK   14  A    between atoms: C_34  and  C_36 
ROOT
ATOM      1  O   UNL d   1      21.342  20.874  30.401  0.00  0.00    -0.348 OA
ATOM      2  C   UNL d   1      21.054  19.402  29.536  0.00  0.00     0.211 A 
ATOM      3  C   UNL d   1      21.172  19.888  28.669  0.00  0.00     0.183 A 
ATOM      4  C   UNL d   1      21.375  20.867  28.669  0.00  0.00     0.180 A 
ATOM      5  C   UNL d   1      21.140  19.895  30.401  0.00  0.00     0.298 A 
ATOM      6  C   UNL d   1      21.460  21.360  29.535  0.00  0.00     0.179 A 
ENDROOT
BRANCH   5   7
ATOM      7  O   UNL d   1      21.022  19.409  31.267  0.00  0.00    -0.318 OA
BRANCH   7   8
ATOM      8  C   UNL d   1      20.617  19.878  32.052  0.00  0.00     0.077 A 
ATOM      9  C   UNL d   1      21.222  20.392  32.727  0.00  0.00     0.075 A 
ATOM     10  C   UNL d   1      20.790  20.876  33.541  0.00  0.00     0.095 A 
ATOM     11  O   UNL d   1      21.378  21.367  34.183  0.00  0.00    -0.309 OA
ATOM     12  C   UNL d   1      19.800  20.854  33.685  0.00  0.00     0.081 A 
ATOM     13  C   UNL d   1      20.976  21.837  34.970  0.00  0.00     0.090 A 
ATOM     14  C   UNL d   1      19.987  21.815  35.113  0.00  0.00     0.094 A 
ATOM     15  C   UNL d   1      19.399  21.324  34.471  0.00  0.00     0.190 A 
ATOM     16  O   UNL d   1      18.410  21.302  34.614  0.00  0.00    -0.287 OA
ATOM     17  C   UNL d   1      19.175  20.346  33.024  0.00  0.00     0.085 A 
ATOM     18  C   UNL d   1      19.586  19.855  32.203  0.00  0.00     0.074 A 
BRANCH  13  19
ATOM     19  C   UNL d   1      21.564  22.329  35.613  0.00  0.00    -0.002 A 
ATOM     20  C   UNL d   1      21.345  23.269  35.872  0.00  0.00     0.017 A 
ATOM     21  C   UNL d   1      21.932  23.760  36.515  0.00  0.00     0.037 A 
ATOM     22  C   UNL d   1      22.739  23.311  36.898  0.00  0.00     0.065 A 
ATOM     23  C   UNL d   1      22.959  22.371  36.639  0.00  0.00     0.037 A 
ATOM     24  C   UNL d   1      22.371  21.879  35.996  0.00  0.00     0.017 A 
BRANCH  22  25
ATOM     25  O   UNL d   1      23.327  23.803  37.541  0.00  0.00    -0.361 OA
ATOM     26  H   UNL d   1      23.889  23.580  37.680  0.00  0.00     0.217 HD
ENDBRANCH  22  25
ENDBRANCH  13  19
BRANCH  17  27
ATOM     27  O   UNL d   1      18.187  20.331  33.177  0.00  0.00    -0.360 OA
ATOM     28  H   UNL d   1      17.946  19.955  33.608  0.00  0.00     0.217 HD
ENDBRANCH  17  27
ENDBRANCH   7   8
ENDBRANCH   5   7
BRANCH   2  29
ATOM     29  O   UNL d   1      20.851  18.423  29.536  0.00  0.00    -0.346 OA
BRANCH  29  30
ATOM     30  C   UNL d   1      21.587  17.760  29.673  0.00  0.00     0.292 A 
ATOM     31  O   UNL d   1      22.537  18.025  29.508  0.00  0.00    -0.351 OA
ATOM     32  C   UNL d   1      23.273  17.362  29.645  0.00  0.00     0.152 A 
ATOM     33  C   UNL d   1      23.059  16.433  29.948  0.00  0.00     0.178 A 
ATOM     34  C   UNL d   1      24.222  17.628  29.480  0.00  0.00     0.042 C 
ATOM     35  C   UNL d   1      22.109  16.168  30.113  0.00  0.00     0.183 A 
ATOM     36  C   UNL d   1      21.373  16.831  29.976  0.00  0.00     0.204 A 
BRANCH  33  37
ATOM     37  O   UNL d   1      23.795  15.770  30.085  0.00  0.00    -0.390 OA
ATOM     38  H   UNL d   1      23.886  15.520  30.645  0.00  0.00     0.210 HD
ENDBRANCH  33  37
BRANCH  35  39
ATOM     39  O   UNL d   1      21.895  15.239  30.415  0.00  0.00    -0.390 OA
ATOM     40  H   UNL d   1      22.328  14.898  30.700  0.00  0.00     0.210 HD
ENDBRANCH  35  39
BRANCH  36  41
ATOM     41  O   UNL d   1      20.423  16.565  30.141  0.00  0.00    -0.388 OA
ATOM     42  H   UNL d   1      20.184  16.072  29.851  0.00  0.00     0.210 HD
ENDBRANCH  36  41
ENDBRANCH  29  30
ENDBRANCH   2  29
BRANCH   6  43
ATOM     43  C   UNL d   1      21.663  22.339  29.534  0.00  0.00     0.198 C 
BRANCH  43  44
ATOM     44  O   UNL d   1      21.238  22.938  30.213  0.00  0.00    -0.398 OA
ATOM     45  H   UNL d   1      21.166  22.743  30.797  0.00  0.00     0.209 HD
ENDBRANCH  43  44
ENDBRANCH   6  43
BRANCH   3  46
ATOM     46  O   UNL d   1      21.086  19.394  27.804  0.00  0.00    -0.390 OA
ATOM     47  H   UNL d   1      21.422  19.569  27.313  0.00  0.00     0.210 HD
ENDBRANCH   3  46
BRANCH   4  48
ATOM     48  O   UNL d   1      21.492  21.353  27.803  0.00  0.00    -0.390 OA
ATOM     49  H   UNL d   1      21.901  21.147  27.385  0.00  0.00     0.210 HD
ENDBRANCH   4  48
TORSDOF 14
ENDMDL
MODEL 3
REMARK VINA RESULT:    -9.259      2.389      6.700
REMARK INTER + INTRA:          -4.827
REMARK INTER:                 -14.773
REMARK INTRA:                   9.946
REMARK UNBOUND:                 9.846
REMARK  14 active torsions:
REMARK  status: ('A' for Active; 'I' for Inactive)
REMARK    1  A    between atoms: C_15  and  O_1 
REMARK    2  A    between atoms: C_18  and  O_1 
REMARK    3  A    between atoms: C_16  and  O_4 
REMARK    4  A    between atoms: C_20  and  O_5 
REMARK    5  A    between atoms: O_5  and  C_27 
REMARK    6  A    between atoms: C_17  and  O_6 
REMARK    7  A    between atoms: C_19  and  O_7 
REMARK    8  A    between atoms: C_22  and  O_8 
REMARK    9  A    between atoms: C_23  and  O_9 
REMARK   10  A    between atoms: O_10  and  C_25 
REMARK   11  A    between atoms: O_12  and  C_31 
REMARK   12  A    between atoms: O_14  and  C_41 
REMARK   13  A    between atoms: C_21  and  C_25 
REMARK   14  A    between atoms: C_34  and  C_36 
ROOT
ATOM      1  O   UNL d   1      17.630  28.719  24.828  0.00  0.00    -0.348 OA
ATOM      2  C   UNL d   1      16.819  29.239  26.267  0.00  0.00     0.211 A 
ATOM      3  C   UNL d   1      15.987  29.406  25.738  0.00  0.00     0.183 A 
ATOM      4  C   UNL d   1      15.976  29.229  24.754  0.00  0.00     0.180 A 
ATOM      5  C   UNL d   1      17.640  28.896  25.812  0.00  0.00     0.298 A 
ATOM      6  C   UNL d   1      16.798  28.886  24.299  0.00  0.00     0.179 A 
ENDROOT
BRANCH   5   7
ATOM      7  O   UNL d   1      18.472  28.729  26.341  0.00  0.00    -0.318 OA
BRANCH   7   8
ATOM      8  C   UNL d   1      19.210  28.177  25.953  0.00  0.00     0.077 A 
ATOM      9  C   UNL d   1      19.328  27.182  26.238  0.00  0.00     0.075 A 
ATOM     10  C   UNL d   1      20.099  26.617  25.827  0.00  0.00     0.095 A 
ATOM     11  O   UNL d   1      20.206  25.663  26.106  0.00  0.00    -0.309 OA
ATOM     12  C   UNL d   1      20.730  27.016  25.161  0.00  0.00     0.081 A 
ATOM     13  C   UNL d   1      20.942  25.107  25.720  0.00  0.00     0.090 A 
ATOM     14  C   UNL d   1      21.572  25.507  25.054  0.00  0.00     0.094 A 
ATOM     15  C   UNL d   1      21.466  26.461  24.774  0.00  0.00     0.190 A 
ATOM     16  O   UNL d   1      22.096  26.860  24.109  0.00  0.00    -0.287 OA
ATOM     17  C   UNL d   1      20.631  28.009  24.861  0.00  0.00     0.085 A 
ATOM     18  C   UNL d   1      19.867  28.593  25.259  0.00  0.00     0.074 A 
BRANCH  13  19
ATOM     19  C   UNL d   1      21.049  24.153  25.999  0.00  0.00    -0.002 A 
ATOM     20  C   UNL d   1      20.825  23.417  25.360  0.00  0.00     0.017 A 
ATOM     21  C   UNL d   1      20.932  22.463  25.639  0.00  0.00     0.037 A 
ATOM     22  C   UNL d   1      21.262  22.244  26.557  0.00  0.00     0.065 A 
ATOM     23  C   UNL d   1      21.485  22.981  27.197  0.00  0.00     0.037 A 
ATOM     24  C   UNL d   1      21.379  23.935  26.917  0.00  0.00     0.017 A 
BRANCH  22  25
ATOM     25  O   UNL d   1      21.369  21.290  26.837  0.00  0.00    -0.361 OA
ATOM     26  H   UNL d   1      21.397  21.144  27.439  0.00  0.00     0.217 HD
ENDBRANCH  22  25
ENDBRANCH  13  19
BRANCH  17  27
ATOM     27  O   UNL d   1      21.268  28.398  24.194  0.00  0.00    -0.360 OA
ATOM     28  H   UNL d   1      21.858  28.500  24.353  0.00  0.00     0.217 HD
ENDBRANCH  17  27
ENDBRANCH   7   8
ENDBRANCH   5   7
BRANCH   2  29
ATOM     29  O   UNL d   1      16.829  29.416  27.251  0.00  0.00    -0.346 OA
BRANCH  29  30
ATOM     30  C   UNL d   1      16.657  28.670  27.895  0.00  0.00     0.292 A 
ATOM     31  O   UNL d   1      16.080  27.900  27.625  0.00  0.00    -0.351 OA
ATOM     32  C   UNL d   1      15.908  27.154  28.269  0.00  0.00     0.152 A 
ATOM     33  C   UNL d   1      16.314  27.179  29.182  0.00  0.00     0.178 A 
ATOM     34  C   UNL d   1      15.331  26.384  27.999  0.00  0.00     0.042 C 
ATOM     35  C   UNL d   1      16.892  27.949  29.452  0.00  0.00     0.183 A 
ATOM     36  C   UNL d   1      17.063  28.695  28.809  0.00  0.00     0.204 A 
BRANCH  33  37
ATOM     37  O   UNL d   1      16.142  26.433  29.826  0.00  0.00    -0.390 OA
ATOM     38  H   UNL d   1      15.789  25.952  29.657  0.00  0.00     0.210 HD
ENDBRANCH  33  37
BRANCH  35  39
ATOM     39  O   UNL d   1      17.297  27.974  30.366  0.00  0.00    -0.390 OA
ATOM     40  H   UNL d   1      17.022  27.677  30.836  0.00  0.00     0.210 HD
ENDBRANCH  35  39
BRANCH  36  41
ATOM     41  O   UNL d   1      17.641  29.465  29.079  0.00  0.00    -0.388 OA
ATOM     42  H   UNL d   1      17.400  29.933  29.406  0.00  0.00     0.210 HD
ENDBRANCH  36  41
ENDBRANCH  29  30
ENDBRANCH   2  29
BRANCH   6  43
ATOM     43  C   UNL d   1      16.788  28.709  23.315  0.00  0.00     0.198 C 
BRANCH  43  44
ATOM     44  O   UNL d   1      17.464  29.145  22.721  0.00  0.00    -0.398 OA
ATOM     45  H   UNL d   1      17.830  29.593  22.945  0.00  0.00     0.209 HD
ENDBRANCH  43  44
ENDBRANCH   6  43
BRANCH   3  46
ATOM     46  O   UNL d   1      15.165  29.749  26.193  0.00  0.00    -0.390 OA
ATOM     47  H   UNL d   1      14.654  29.399  26.215  0.00  0.00     0.210 HD
ENDBRANCH   3  46
BRANCH   4  48
ATOM     48  O   UNL d   1      15.144  29.396  24.225  0.00  0.00    -0.390 OA
ATOM     49  H   UNL d   1      14.613  29.123  24.389  0.00  0.00     0.210 HD
ENDBRANCH   4  48
TORSDOF 14
ENDMDL
MODEL 4
REMARK VINA RESULT:    -9.142      1.957      7.457
REMARK INTER + INTRA:          -4.640
REMARK INTER:                 -14.869
REMARK INTRA:                  10.229
REMARK UNBOUND:                 9.846
REMARK  14 active torsions:
REMARK  status: ('A' for Active; 'I' for Inactive)
REMARK    1  A    between atoms: C_15  and  O_1 
REMARK    2  A    between atoms: C_18  and  O_1 
REMARK    3  A    between atoms: C_16  and  O_4 
REMARK    4  A    between atoms: C_20  and  O_5 
REMARK    5  A    between atoms: O_5  and  C_27 
REMARK    6  A    between atoms: C_17  and  O_6 
REMARK    7  A    between atoms: C_19  and  O_7 
REMARK    8  A    between atoms: C_22  and  O_8 
REMARK    9  A    between atoms: C_23  and  O_9 
REMARK   10  A    between atoms: O_10  and  C_25 
REMARK   11  A    between atoms: O_12  and  C_31 
REMARK   12  A    between atoms: O_14  and  C_41 
REMARK   13  A    between atoms: C_21  and  C_25 
REMARK   14  A    between atoms: C_34  and  C_36 
ROOT
ATOM      1  O   UNL d   1      17.658  28.739  24.902  0.00  0.00    -0.348 OA
ATOM      2  C   UNL d   1      16.845  29.251  26.343  0.00  0.00     0.211 A 
ATOM      3  C   UNL d   1      16.013  29.419  25.815  0.00  0.00     0.183 A 
ATOM      4  C   UNL d   1      16.004  29.248  24.829  0.00  0.00     0.180 A 
ATOM      5  C   UNL d   1      17.667  28.911  25.887  0.00  0.00     0.298 A 
ATOM      6  C   UNL d   1      16.826  28.908  24.373  0.00  0.00     0.179 A 
ENDROOT
BRANCH   5   7
ATOM      7  O   UNL d   1      18.499  28.742  26.416  0.00  0.00    -0.318 OA
BRANCH   7   8
ATOM      8  C   UNL d   1      19.179  28.088  26.083  0.00  0.00     0.077 A 
ATOM      9  C   UNL d   1      19.924  28.395  25.423  0.00  0.00     0.075 A 
ATOM     10  C   UNL d   1      20.627  27.706  25.084  0.00  0.00     0.095 A 
ATOM     11  O   UNL d   1      21.339  28.008  24.451  0.00  0.00    -0.309 OA
ATOM     12  C   UNL d   1      20.596  26.751  25.383  0.00  0.00     0.081 A 
ATOM     13  C   UNL d   1      22.021  27.357  24.116  0.00  0.00     0.090 A 
ATOM     14  C   UNL d   1      21.989  26.403  24.415  0.00  0.00     0.094 A 
ATOM     15  C   UNL d   1      21.277  26.100  25.048  0.00  0.00     0.190 A 
ATOM     16  O   UNL d   1      21.246  25.147  25.347  0.00  0.00    -0.287 OA
ATOM     17  C   UNL d   1      19.860  26.422  26.042  0.00  0.00     0.085 A 
ATOM     18  C   UNL d   1      19.147  27.094  26.395  0.00  0.00     0.074 A 
BRANCH  13  19
ATOM     19  C   UNL d   1      22.733  27.659  23.483  0.00  0.00    -0.002 A 
ATOM     20  C   UNL d   1      22.717  27.356  22.530  0.00  0.00     0.017 A 
ATOM     21  C   UNL d   1      23.430  27.658  21.898  0.00  0.00     0.037 A 
ATOM     22  C   UNL d   1      24.159  28.264  22.217  0.00  0.00     0.065 A 
ATOM     23  C   UNL d   1      24.174  28.567  23.170  0.00  0.00     0.037 A 
ATOM     24  C   UNL d   1      23.462  28.265  23.803  0.00  0.00     0.017 A 
BRANCH  22  25
ATOM     25  O   UNL d   1      24.871  28.566  21.584  0.00  0.00    -0.361 OA
ATOM     26  H   UNL d   1      25.468  28.518  21.743  0.00  0.00     0.217 HD
ENDBRANCH  22  25
ENDBRANCH  13  19
BRANCH  17  27
ATOM     27  O   UNL d   1      19.838  25.466  26.334  0.00  0.00    -0.360 OA
ATOM     28  H   UNL d   1      19.974  25.318  26.922  0.00  0.00     0.217 HD
ENDBRANCH  17  27
ENDBRANCH   7   8
ENDBRANCH   5   7
BRANCH   2  29
ATOM     29  O   UNL d   1      16.855  29.422  27.328  0.00  0.00    -0.346 OA
BRANCH  29  30
ATOM     30  C   UNL d   1      16.663  28.678  27.968  0.00  0.00     0.292 A 
ATOM     31  O   UNL d   1      16.061  27.927  27.695  0.00  0.00    -0.351 OA
ATOM     32  C   UNL d   1      15.870  27.182  28.334  0.00  0.00     0.152 A 
ATOM     33  C   UNL d   1      16.280  27.188  29.246  0.00  0.00     0.178 A 
ATOM     34  C   UNL d   1      15.268  26.432  28.061  0.00  0.00     0.042 C 
ATOM     35  C   UNL d   1      16.881  27.939  29.519  0.00  0.00     0.183 A 
ATOM     36  C   UNL d   1      17.073  28.684  28.880  0.00  0.00     0.204 A 
BRANCH  33  37
ATOM     37  O   UNL d   1      16.088  26.443  29.885  0.00  0.00    -0.390 OA
ATOM     38  H   UNL d   1      15.502  26.277  30.000  0.00  0.00     0.210 HD
ENDBRANCH  33  37
BRANCH  35  39
ATOM     39  O   UNL d   1      17.291  27.945  30.431  0.00  0.00    -0.390 OA
ATOM     40  H   UNL d   1      17.872  27.744  30.511  0.00  0.00     0.210 HD
ENDBRANCH  35  39
BRANCH  36  41
ATOM     41  O   UNL d   1      17.675  29.434  29.153  0.00  0.00    -0.388 OA
ATOM     42  H   UNL d   1      17.436  29.993  29.276  0.00  0.00     0.210 HD
ENDBRANCH  36  41
ENDBRANCH  29  30
ENDBRANCH   2  29
BRANCH   6  43
ATOM     43  C   UNL d   1      16.816  28.736  23.388  0.00  0.00     0.198 C 
BRANCH  43  44
ATOM     44  O   UNL d   1      17.651  28.856  22.851  0.00  0.00    -0.398 OA
ATOM     45  H   UNL d   1      18.182  28.598  23.041  0.00  0.00     0.209 HD
ENDBRANCH  43  44
ENDBRANCH   6  43
BRANCH   3  46
ATOM     46  O   UNL d   1      15.191  29.760  26.271  0.00  0.00    -0.390 OA
ATOM     47  H   UNL d   1      15.233  30.227  26.676  0.00  0.00     0.210 HD
ENDBRANCH   3  46
BRANCH   4  48
ATOM     48  O   UNL d   1      15.172  29.416  24.301  0.00  0.00    -0.390 OA
ATOM     49  H   UNL d   1      15.203  29.475  23.684  0.00  0.00     0.210 HD
ENDBRANCH   4  48
TORSDOF 14
ENDMDL
MODEL 5
REMARK VINA RESULT:    -9.070      7.269      9.328
REMARK INTER + INTRA:          -4.526
REMARK INTER:                 -14.480
REMARK INTRA:                   9.954
REMARK UNBOUND:                 9.846
REMARK  14 active torsions:
REMARK  status: ('A' for Active; 'I' for Inactive)
REMARK    1  A    between atoms: C_15  and  O_1 
REMARK    2  A    between atoms: C_18  and  O_1 
REMARK    3  A    between atoms: C_16  and  O_4 
REMARK    4  A    between atoms: C_20  and  O_5 
REMARK    5  A    between atoms: O_5  and  C_27 
REMARK    6  A    between atoms: C_17  and  O_6 
REMARK    7  A    between atoms: C_19  and  O_7 
REMARK    8  A    between atoms: C_22  and  O_8 
REMARK    9  A    between atoms: C_23  and  O_9 
REMARK   10  A    between atoms: O_10  and  C_25 
REMARK   11  A    between atoms: O_12  and  C_31 
REMARK   12  A    between atoms: O_14  and  C_41 
REMARK   13  A    between atoms: C_21  and  C_25 
REMARK   14  A    between atoms: C_34  and  C_36 
ROOT
ATOM      1  O   UNL d   1      21.549  18.615  30.081  0.00  0.00    -0.348 OA
ATOM      2  C   UNL d   1      22.341  19.936  29.288  0.00  0.00     0.211 A 
ATOM      3  C   UNL d   1      23.099  19.333  29.040  0.00  0.00     0.183 A 
ATOM      4  C   UNL d   1      23.082  18.371  29.313  0.00  0.00     0.180 A 
ATOM      5  C   UNL d   1      21.566  19.577  29.808  0.00  0.00     0.298 A 
ATOM      6  C   UNL d   1      22.307  18.012  29.834  0.00  0.00     0.179 A 
ENDROOT
BRANCH   5   7
ATOM      7  O   UNL d   1      20.808  20.180  30.056  0.00  0.00    -0.318 OA
BRANCH   7   8
ATOM      8  C   UNL d   1      20.477  20.207  30.999  0.00  0.00     0.077 A 
ATOM      9  C   UNL d   1      20.947  20.815  31.703  0.00  0.00     0.075 A 
ATOM     10  C   UNL d   1      20.595  20.835  32.682  0.00  0.00     0.095 A 
ATOM     11  O   UNL d   1      21.051  21.421  33.352  0.00  0.00    -0.309 OA
ATOM     12  C   UNL d   1      19.811  20.278  32.958  0.00  0.00     0.081 A 
ATOM     13  C   UNL d   1      20.723  21.450  34.297  0.00  0.00     0.090 A 
ATOM     14  C   UNL d   1      19.940  20.893  34.571  0.00  0.00     0.094 A 
ATOM     15  C   UNL d   1      19.483  20.307  33.902  0.00  0.00     0.190 A 
ATOM     16  O   UNL d   1      18.699  19.750  34.177  0.00  0.00    -0.287 OA
ATOM     17  C   UNL d   1      19.325  19.662  32.271  0.00  0.00     0.085 A 
ATOM     18  C   UNL d   1      19.661  19.627  31.286  0.00  0.00     0.074 A 
BRANCH  13  19
ATOM     19  C   UNL d   1      21.179  22.036  34.967  0.00  0.00    -0.002 A 
ATOM     20  C   UNL d   1      22.116  21.834  35.253  0.00  0.00     0.017 A 
ATOM     21  C   UNL d   1      22.571  22.420  35.922  0.00  0.00     0.037 A 
ATOM     22  C   UNL d   1      22.091  23.208  36.306  0.00  0.00     0.065 A 
ATOM     23  C   UNL d   1      21.154  23.410  36.021  0.00  0.00     0.037 A 
ATOM     24  C   UNL d   1      20.698  22.824  35.351  0.00  0.00     0.017 A 
BRANCH  22  25
ATOM     25  O   UNL d   1      22.547  23.794  36.976  0.00  0.00    -0.361 OA
ATOM     26  H   UNL d   1      22.626  24.398  36.858  0.00  0.00     0.217 HD
ENDBRANCH  22  25
ENDBRANCH  13  19
BRANCH  17  27
ATOM     27  O   UNL d   1      18.542  19.110  32.557  0.00  0.00    -0.360 OA
ATOM     28  H   UNL d   1      18.084  19.369  32.886  0.00  0.00     0.217 HD
ENDBRANCH  17  27
ENDBRANCH   7   8
ENDBRANCH   5   7
BRANCH   2  29
ATOM     29  O   UNL d   1      22.357  20.898  29.015  0.00  0.00    -0.346 OA
BRANCH  29  30
ATOM     30  C   UNL d   1      21.952  21.177  28.144  0.00  0.00     0.292 A 
ATOM     31  O   UNL d   1      21.745  20.492  27.446  0.00  0.00    -0.351 OA
ATOM     32  C   UNL d   1      21.339  20.772  26.576  0.00  0.00     0.152 A 
ATOM     33  C   UNL d   1      21.140  21.737  26.404  0.00  0.00     0.178 A 
ATOM     34  C   UNL d   1      21.132  20.087  25.877  0.00  0.00     0.042 C 
ATOM     35  C   UNL d   1      21.347  22.422  27.103  0.00  0.00     0.183 A 
ATOM     36  C   UNL d   1      21.753  22.142  27.973  0.00  0.00     0.204 A 
BRANCH  33  37
ATOM     37  O   UNL d   1      20.735  22.017  25.534  0.00  0.00    -0.390 OA
ATOM     38  H   UNL d   1      20.135  22.171  25.507  0.00  0.00     0.210 HD
ENDBRANCH  33  37
BRANCH  35  39
ATOM     39  O   UNL d   1      21.148  23.387  26.931  0.00  0.00    -0.390 OA
ATOM     40  H   UNL d   1      20.586  23.557  26.733  0.00  0.00     0.210 HD
ENDBRANCH  35  39
BRANCH  36  41
ATOM     41  O   UNL d   1      21.960  22.827  28.671  0.00  0.00    -0.388 OA
ATOM     42  H   UNL d   1      22.503  23.126  28.662  0.00  0.00     0.210 HD
ENDBRANCH  36  41
ENDBRANCH  29  30
ENDBRANCH   2  29
BRANCH   6  43
ATOM     43  C   UNL d   1      22.291  17.050  30.107  0.00  0.00     0.198 C 
BRANCH  43  44
ATOM     44  O   UNL d   1      21.461  16.508  29.976  0.00  0.00    -0.398 OA
ATOM     45  H   UNL d   1      21.492  15.888  29.980  0.00  0.00     0.209 HD
ENDBRANCH  43  44
ENDBRANCH   6  43
BRANCH   3  46
ATOM     46  O   UNL d   1      23.874  19.691  28.520  0.00  0.00    -0.390 OA
ATOM     47  H   UNL d   1      24.220  19.309  28.176  0.00  0.00     0.210 HD
ENDBRANCH   3  46
BRANCH   4  48
ATOM     48  O   UNL d   1      23.840  17.768  29.066  0.00  0.00    -0.390 OA
ATOM     49  H   UNL d   1      24.277  17.631  29.484  0.00  0.00     0.210 HD
ENDBRANCH   4  48
TORSDOF 14
ENDMDL
