MODEL 1
REMARK VINA RESULT:    -8.253      0.000      0.000
REMARK INTER + INTRA:          -8.152
REMARK INTER:                  -9.472
REMARK INTRA:                   1.319
REMARK UNBOUND:                 1.066
REMARK  3 active torsions:
REMARK  status: ('A' for Active; 'I' for Inactive)
REMARK    1  A    between atoms: O_2  and  C_10 
REMARK    2  A    between atoms: O_4  and  C_13 
REMARK    3  A    between atoms: C_7  and  C_9 
ROOT
ATOM      1  O   UNL d   1       8.744  -4.495  12.391  0.00  0.00    -0.309 OA
ATOM      2  O   UNL d   1      10.336  -6.817  11.355  0.00  0.00    -0.287 OA
ATOM      3  C   UNL d   1      10.020  -5.115  11.397  0.00  0.00     0.081 A 
ATOM      4  C   UNL d   1       9.489  -4.341  11.743  0.00  0.00     0.095 A 
ATOM      5  C   UNL d   1       8.530  -5.423  12.695  0.00  0.00     0.090 A 
ATOM      6  C   UNL d   1       9.805  -6.043  11.701  0.00  0.00     0.190 A 
ATOM      7  C   UNL d   1      10.799  -4.969  10.721  0.00  0.00     0.085 A 
ATOM      8  C   UNL d   1       9.060  -6.197  12.350  0.00  0.00     0.094 A 
ATOM      9  C   UNL d   1       9.701  -3.368  11.436  0.00  0.00     0.075 A 
ATOM     10  C   UNL d   1      10.475  -3.199  10.760  0.00  0.00     0.071 A 
ATOM     11  C   UNL d   1      11.028  -4.005  10.401  0.00  0.00     0.074 A 
ENDROOT
BRANCH   5  12
ATOM     12  C   UNL d   1       7.784  -5.578  13.344  0.00  0.00    -0.002 A 
ATOM     13  C   UNL d   1       7.821  -6.355  13.972  0.00  0.00     0.014 A 
ATOM     14  C   UNL d   1       7.076  -6.509  14.620  0.00  0.00     0.001 A 
ATOM     15  C   UNL d   1       6.294  -5.886  14.641  0.00  0.00     0.000 A 
ATOM     16  C   UNL d   1       6.257  -5.109  14.013  0.00  0.00     0.001 A 
ATOM     17  C   UNL d   1       7.002  -4.955  13.364  0.00  0.00     0.014 A 
ENDBRANCH   5  12
BRANCH   7  18
ATOM     18  O   UNL d   1      11.323  -5.751  10.383  0.00  0.00    -0.360 OA
ATOM     19  H   UNL d   1      11.932  -5.786  10.492  0.00  0.00     0.217 HD
ENDBRANCH   7  18
BRANCH  10  20
ATOM     20  O   UNL d   1      10.686  -2.269  10.459  0.00  0.00    -0.361 OA
ATOM     21  H   UNL d   1      10.286  -1.961  10.100  0.00  0.00     0.217 HD
ENDBRANCH  10  20
TORSDOF 3
ENDMDL
MODEL 2
REMARK VINA RESULT:    -7.997     35.609     37.173
REMARK INTER + INTRA:          -7.866
REMARK INTER:                  -8.971
REMARK INTRA:                   1.105
REMARK UNBOUND:                 1.066
REMARK  3 active torsions:
REMARK  status: ('A' for Active; 'I' for Inactive)
REMARK    1  A    between atoms: O_2  and  C_10 
REMARK    2  A    between atoms: O_4  and  C_13 
REMARK    3  A    between atoms: C_7  and  C_9 
ROOT
ATOM      1  O   UNL d   1      17.027  27.263  26.656  0.00  0.00    -0.309 OA
ATOM      2  O   UNL d   1      18.153  28.535  29.128  0.00  0.00    -0.287 OA
ATOM      3  C   UNL d   1      17.042  27.438  28.379  0.00  0.00     0.081 A 
ATOM      4  C   UNL d   1      16.666  27.014  27.555  0.00  0.00     0.095 A 
ATOM      5  C   UNL d   1      17.763  27.936  26.581  0.00  0.00     0.090 A 
ATOM      6  C   UNL d   1      17.778  28.111  28.304  0.00  0.00     0.190 A 
ATOM      7  C   UNL d   1      16.676  27.189  29.322  0.00  0.00     0.085 A 
ATOM      8  C   UNL d   1      18.138  28.360  27.405  0.00  0.00     0.094 A 
ATOM      9  C   UNL d   1      15.900  26.311  27.616  0.00  0.00     0.075 A 
ATOM     10  C   UNL d   1      15.519  26.047  28.549  0.00  0.00     0.071 A 
ATOM     11  C   UNL d   1      15.910  26.488  29.407  0.00  0.00     0.074 A 
ENDROOT
BRANCH   5  12
ATOM     12  C   UNL d   1      18.123  28.185  25.682  0.00  0.00    -0.002 A 
ATOM     13  C   UNL d   1      17.516  28.581  24.992  0.00  0.00     0.014 A 
ATOM     14  C   UNL d   1      17.877  28.830  24.093  0.00  0.00     0.001 A 
ATOM     15  C   UNL d   1      18.844  28.683  23.884  0.00  0.00     0.000 A 
ATOM     16  C   UNL d   1      19.450  28.288  24.574  0.00  0.00     0.001 A 
ATOM     17  C   UNL d   1      19.090  28.039  25.473  0.00  0.00     0.014 A 
ENDBRANCH   5  12
BRANCH   7  18
ATOM     18  O   UNL d   1      17.059  27.619  30.139  0.00  0.00    -0.360 OA
ATOM     19  H   UNL d   1      16.750  27.594  30.676  0.00  0.00     0.217 HD
ENDBRANCH   7  18
BRANCH  10  20
ATOM     20  O   UNL d   1      14.783  25.374  28.620  0.00  0.00    -0.361 OA
ATOM     21  H   UNL d   1      14.842  24.820  28.346  0.00  0.00     0.217 HD
ENDBRANCH  10  20
TORSDOF 3
ENDMDL
MODEL 3
REMARK VINA RESULT:    -7.959     35.936     36.765
REMARK INTER + INTRA:          -7.824
REMARK INTER:                  -8.842
REMARK INTRA:                   1.018
REMARK UNBOUND:                 1.066
REMARK  3 active torsions:
REMARK  status: ('A' for Active; 'I' for Inactive)
REMARK    1  A    between atoms: O_2  and  C_10 
REMARK    2  A    between atoms: O_4  and  C_13 
REMARK    3  A    between atoms: C_7  and  C_9 
ROOT
ATOM      1  O   UNL d   1      16.536  27.840  26.599  0.00  0.00    -0.309 OA
ATOM      2  O   UNL d   1      19.457  27.256  26.954  0.00  0.00    -0.287 OA
ATOM      3  C   UNL d   1      18.165  27.929  26.018  0.00  0.00     0.081 A 
ATOM      4  C   UNL d   1      17.191  28.124  25.899  0.00  0.00     0.095 A 
ATOM      5  C   UNL d   1      16.854  27.361  27.417  0.00  0.00     0.090 A 
ATOM      6  C   UNL d   1      18.483  27.450  26.836  0.00  0.00     0.190 A 
ATOM      7  C   UNL d   1      18.859  28.219  25.297  0.00  0.00     0.085 A 
ATOM      8  C   UNL d   1      17.828  27.167  27.536  0.00  0.00     0.094 A 
ATOM      9  C   UNL d   1      16.844  28.622  25.052  0.00  0.00     0.075 A 
ATOM     10  C   UNL d   1      17.521  28.921  24.319  0.00  0.00     0.071 A 
ATOM     11  C   UNL d   1      18.535  28.718  24.442  0.00  0.00     0.074 A 
ENDROOT
BRANCH   5  12
ATOM     12  C   UNL d   1      16.198  27.077  28.117  0.00  0.00    -0.002 A 
ATOM     13  C   UNL d   1      15.827  27.750  28.756  0.00  0.00     0.014 A 
ATOM     14  C   UNL d   1      15.171  27.467  29.456  0.00  0.00     0.001 A 
ATOM     15  C   UNL d   1      14.887  26.510  29.516  0.00  0.00     0.000 A 
ATOM     16  C   UNL d   1      15.259  25.837  28.877  0.00  0.00     0.001 A 
ATOM     17  C   UNL d   1      15.914  26.120  28.177  0.00  0.00     0.014 A 
ENDBRANCH   5  12
BRANCH   7  18
ATOM     18  O   UNL d   1      19.830  28.019  25.426  0.00  0.00    -0.360 OA
ATOM     19  H   UNL d   1      20.072  27.497  25.196  0.00  0.00     0.217 HD
ENDBRANCH   7  18
BRANCH  10  20
ATOM     20  O   UNL d   1      17.199  29.399  23.502  0.00  0.00    -0.361 OA
ATOM     21  H   UNL d   1      17.586  29.764  23.184  0.00  0.00     0.217 HD
ENDBRANCH  10  20
TORSDOF 3
ENDMDL
MODEL 4
REMARK VINA RESULT:    -7.946     35.957     36.908
REMARK INTER + INTRA:          -7.810
REMARK INTER:                  -8.821
REMARK INTRA:                   1.012
REMARK UNBOUND:                 1.066
REMARK  3 active torsions:
REMARK  status: ('A' for Active; 'I' for Inactive)
REMARK    1  A    between atoms: O_2  and  C_10 
REMARK    2  A    between atoms: O_4  and  C_13 
REMARK    3  A    between atoms: C_7  and  C_9 
ROOT
ATOM      1  O   UNL d   1      17.681  27.408  27.225  0.00  0.00    -0.309 OA
ATOM      2  O   UNL d   1      16.445  29.020  25.018  0.00  0.00    -0.287 OA
ATOM      3  C   UNL d   1      17.840  28.300  25.749  0.00  0.00     0.081 A 
ATOM      4  C   UNL d   1      18.252  27.763  26.485  0.00  0.00     0.095 A 
ATOM      5  C   UNL d   1      16.698  27.589  27.229  0.00  0.00     0.090 A 
ATOM      6  C   UNL d   1      16.857  28.482  25.753  0.00  0.00     0.190 A 
ATOM      7  C   UNL d   1      18.422  28.677  24.972  0.00  0.00     0.085 A 
ATOM      8  C   UNL d   1      16.286  28.127  26.493  0.00  0.00     0.094 A 
ATOM      9  C   UNL d   1      19.275  27.565  26.494  0.00  0.00     0.075 A 
ATOM     10  C   UNL d   1      19.876  27.932  25.727  0.00  0.00     0.071 A 
ATOM     11  C   UNL d   1      19.447  28.491  24.961  0.00  0.00     0.074 A 
ENDROOT
BRANCH   5  12
ATOM     12  C   UNL d   1      16.127  27.234  27.969  0.00  0.00    -0.002 A 
ATOM     13  C   UNL d   1      15.848  27.835  28.718  0.00  0.00     0.014 A 
ATOM     14  C   UNL d   1      15.277  27.480  29.458  0.00  0.00     0.001 A 
ATOM     15  C   UNL d   1      14.985  26.523  29.449  0.00  0.00     0.000 A 
ATOM     16  C   UNL d   1      15.265  25.922  28.700  0.00  0.00     0.001 A 
ATOM     17  C   UNL d   1      15.836  26.278  27.960  0.00  0.00     0.014 A 
ENDBRANCH   5  12
BRANCH   7  18
ATOM     18  O   UNL d   1      17.999  29.213  24.241  0.00  0.00    -0.360 OA
ATOM     19  H   UNL d   1      17.446  29.476  24.331  0.00  0.00     0.217 HD
ENDBRANCH   7  18
BRANCH  10  20
ATOM     20  O   UNL d   1      20.860  27.748  25.726  0.00  0.00    -0.361 OA
ATOM     21  H   UNL d   1      21.239  28.090  25.375  0.00  0.00     0.217 HD
ENDBRANCH  10  20
TORSDOF 3
ENDMDL
MODEL 5
REMARK VINA RESULT:    -7.899     25.709     28.513
REMARK INTER + INTRA:          -7.757
REMARK INTER:                  -8.870
REMARK INTRA:                   1.114
REMARK UNBOUND:                 1.066
REMARK  3 active torsions:
REMARK  status: ('A' for Active; 'I' for Inactive)
REMARK    1  A    between atoms: O_2  and  C_10 
REMARK    2  A    between atoms: O_4  and  C_13 
REMARK    3  A    between atoms: C_7  and  C_9 
ROOT
ATOM      1  O   UNL d   1      13.342  20.138   0.111  0.00  0.00    -0.309 OA
ATOM      2  O   UNL d   1      16.132  19.668   1.109  0.00  0.00    -0.287 OA
ATOM      3  C   UNL d   1      14.591  19.049   0.615  0.00  0.00     0.081 A 
ATOM      4  C   UNL d   1      13.661  19.206   0.282  0.00  0.00     0.095 A 
ATOM      5  C   UNL d   1      13.953  20.914   0.272  0.00  0.00     0.090 A 
ATOM      6  C   UNL d   1      15.202  19.825   0.776  0.00  0.00     0.190 A 
ATOM      7  C   UNL d   1      14.937  18.084   0.797  0.00  0.00     0.085 A 
ATOM      8  C   UNL d   1      14.883  20.757   0.605  0.00  0.00     0.094 A 
ATOM      9  C   UNL d   1      13.013  18.409   0.109  0.00  0.00     0.075 A 
ATOM     10  C   UNL d   1      13.338  17.435   0.285  0.00  0.00     0.071 A 
ATOM     11  C   UNL d   1      14.306  17.272   0.632  0.00  0.00     0.074 A 
ENDROOT
BRANCH   5  12
ATOM     12  C   UNL d   1      13.634  21.846   0.101  0.00  0.00    -0.002 A 
ATOM     13  C   UNL d   1      13.648  22.522   0.837  0.00  0.00     0.014 A 
ATOM     14  C   UNL d   1      13.329  23.454   0.665  0.00  0.00     0.001 A 
ATOM     15  C   UNL d   1      12.996  23.710  -0.242  0.00  0.00     0.000 A 
ATOM     16  C   UNL d   1      12.981  23.033  -0.978  0.00  0.00     0.001 A 
ATOM     17  C   UNL d   1      13.300  22.101  -0.807  0.00  0.00     0.014 A 
ENDBRANCH   5  12
BRANCH   7  18
ATOM     18  O   UNL d   1      15.869  17.939   1.130  0.00  0.00    -0.360 OA
ATOM     19  H   UNL d   1      15.965  17.782   1.721  0.00  0.00     0.217 HD
ENDBRANCH   7  18
BRANCH  10  20
ATOM     20  O   UNL d   1      12.724  16.663   0.123  0.00  0.00    -0.361 OA
ATOM     21  H   UNL d   1      12.286  16.702  -0.314  0.00  0.00     0.217 HD
ENDBRANCH  10  20
TORSDOF 3
ENDMDL
