MODEL 1
REMARK VINA RESULT:    -8.305      0.000      0.000
REMARK INTER + INTRA:          -8.305
REMARK INTER:                  -8.305
REMARK INTRA:                   0.000
REMARK UNBOUND:                 0.000
REMARK  0 active torsions:
REMARK  status: ('A' for Active; 'I' for Inactive)
ROOT
ATOM      1  O   UNL d   1     -35.136 -15.736 -19.482  0.00  0.00    -0.287 OA
ATOM      2  O   UNL d   1     -31.847 -16.754 -21.518  0.00  0.00    -0.287 OA
ATOM      3  C   UNL d   1     -33.343 -17.197 -20.766  0.00  0.00     0.029 A 
ATOM      4  C   UNL d   1     -34.165 -16.943 -20.257  0.00  0.00     0.029 A 
ATOM      5  C   UNL d   1     -32.818 -15.547 -20.743  0.00  0.00     0.029 A 
ATOM      6  C   UNL d   1     -33.640 -15.293 -20.234  0.00  0.00     0.029 A 
ATOM      7  C   UNL d   1     -34.314 -15.991 -19.991  0.00  0.00     0.194 A 
ATOM      8  C   UNL d   1     -32.669 -16.500 -21.009  0.00  0.00     0.194 A 
ATOM      9  C   UNL d   1     -33.174 -18.185 -21.050  0.00  0.00     0.016 A 
ATOM     10  C   UNL d   1     -34.876 -17.659 -19.997  0.00  0.00     0.016 A 
ATOM     11  C   UNL d   1     -32.107 -14.831 -21.003  0.00  0.00     0.016 A 
ATOM     12  C   UNL d   1     -33.809 -14.305 -19.950  0.00  0.00     0.016 A 
ATOM     13  C   UNL d   1     -34.728 -18.653 -20.271  0.00  0.00     0.001 A 
ATOM     14  C   UNL d   1     -33.112 -13.572 -20.199  0.00  0.00     0.001 A 
ATOM     15  C   UNL d   1     -32.255 -13.837 -20.729  0.00  0.00     0.001 A 
ATOM     16  C   UNL d   1     -33.872 -18.918 -20.801  0.00  0.00     0.001 A 
ENDROOT
TORSDOF 0
ENDMDL
MODEL 2
REMARK VINA RESULT:    -8.302      0.068      3.310
REMARK INTER + INTRA:          -8.302
REMARK INTER:                  -8.302
REMARK INTRA:                   0.000
REMARK UNBOUND:                 0.000
REMARK  0 active torsions:
REMARK  status: ('A' for Active; 'I' for Inactive)
ROOT
ATOM      1  O   UNL d   1     -35.120 -15.729 -19.535  0.00  0.00    -0.287 OA
ATOM      2  O   UNL d   1     -31.842 -16.828 -21.546  0.00  0.00    -0.287 OA
ATOM      3  C   UNL d   1     -32.798 -15.594 -20.795  0.00  0.00     0.029 A 
ATOM      4  C   UNL d   1     -33.617 -15.319 -20.292  0.00  0.00     0.029 A 
ATOM      5  C   UNL d   1     -33.345 -17.237 -20.789  0.00  0.00     0.029 A 
ATOM      6  C   UNL d   1     -34.164 -16.963 -20.286  0.00  0.00     0.029 A 
ATOM      7  C   UNL d   1     -34.300 -16.004 -20.038  0.00  0.00     0.194 A 
ATOM      8  C   UNL d   1     -32.661 -16.553 -21.043  0.00  0.00     0.194 A 
ATOM      9  C   UNL d   1     -32.077 -14.893 -21.067  0.00  0.00     0.016 A 
ATOM     10  C   UNL d   1     -33.773 -14.324 -20.026  0.00  0.00     0.016 A 
ATOM     11  C   UNL d   1     -33.189 -18.233 -21.055  0.00  0.00     0.016 A 
ATOM     12  C   UNL d   1     -34.885 -17.664 -20.014  0.00  0.00     0.016 A 
ATOM     13  C   UNL d   1     -33.066 -13.606 -20.288  0.00  0.00     0.001 A 
ATOM     14  C   UNL d   1     -34.750 -18.665 -20.269  0.00  0.00     0.001 A 
ATOM     15  C   UNL d   1     -33.896 -18.951 -20.793  0.00  0.00     0.001 A 
ATOM     16  C   UNL d   1     -32.212 -13.892 -20.812  0.00  0.00     0.001 A 
ENDROOT
TORSDOF 0
ENDMDL
MODEL 3
REMARK VINA RESULT:    -7.344     10.819     11.897
REMARK INTER + INTRA:          -7.344
REMARK INTER:                  -7.344
REMARK INTRA:                   0.000
REMARK UNBOUND:                 0.000
REMARK  0 active torsions:
REMARK  status: ('A' for Active; 'I' for Inactive)
ROOT
ATOM      1  O   UNL d   1     -33.676 -22.938 -28.820  0.00  0.00    -0.287 OA
ATOM      2  O   UNL d   1     -30.702 -25.561 -28.291  0.00  0.00    -0.287 OA
ATOM      3  C   UNL d   1     -31.240 -23.961 -28.680  0.00  0.00     0.029 A 
ATOM      4  C   UNL d   1     -31.984 -23.305 -28.812  0.00  0.00     0.029 A 
ATOM      5  C   UNL d   1     -32.395 -25.194 -28.299  0.00  0.00     0.029 A 
ATOM      6  C   UNL d   1     -33.139 -24.538 -28.431  0.00  0.00     0.029 A 
ATOM      7  C   UNL d   1     -32.933 -23.594 -28.687  0.00  0.00     0.194 A 
ATOM      8  C   UNL d   1     -31.446 -24.905 -28.423  0.00  0.00     0.194 A 
ATOM      9  C   UNL d   1     -30.246 -23.675 -28.806  0.00  0.00     0.016 A 
ATOM     10  C   UNL d   1     -31.785 -22.318 -29.079  0.00  0.00     0.016 A 
ATOM     11  C   UNL d   1     -32.594 -26.181 -28.031  0.00  0.00     0.016 A 
ATOM     12  C   UNL d   1     -34.133 -24.824 -28.305  0.00  0.00     0.016 A 
ATOM     13  C   UNL d   1     -30.799 -22.010 -29.211  0.00  0.00     0.001 A 
ATOM     14  C   UNL d   1     -34.355 -25.806 -28.038  0.00  0.00     0.001 A 
ATOM     15  C   UNL d   1     -33.580 -26.489 -27.900  0.00  0.00     0.001 A 
ATOM     16  C   UNL d   1     -30.024 -22.693 -29.073  0.00  0.00     0.001 A 
ENDROOT
TORSDOF 0
ENDMDL
MODEL 4
REMARK VINA RESULT:    -7.314     10.809     11.983
REMARK INTER + INTRA:          -7.314
REMARK INTER:                  -7.314
REMARK INTRA:                   0.000
REMARK UNBOUND:                 0.000
REMARK  0 active torsions:
REMARK  status: ('A' for Active; 'I' for Inactive)
ROOT
ATOM      1  O   UNL d   1     -37.581 -21.229 -12.096  0.00  0.00    -0.287 OA
ATOM      2  O   UNL d   1     -41.487 -21.824 -12.720  0.00  0.00    -0.287 OA
ATOM      3  C   UNL d   1     -40.174 -20.762 -12.335  0.00  0.00     0.029 A 
ATOM      4  C   UNL d   1     -39.198 -20.613 -12.180  0.00  0.00     0.029 A 
ATOM      5  C   UNL d   1     -39.870 -22.440 -12.637  0.00  0.00     0.029 A 
ATOM      6  C   UNL d   1     -38.894 -22.291 -12.481  0.00  0.00     0.029 A 
ATOM      7  C   UNL d   1     -38.557 -21.378 -12.252  0.00  0.00     0.194 A 
ATOM      8  C   UNL d   1     -40.510 -21.675 -12.564  0.00  0.00     0.194 A 
ATOM      9  C   UNL d   1     -40.853 -19.975 -12.263  0.00  0.00     0.016 A 
ATOM     10  C   UNL d   1     -38.832 -19.667 -11.941  0.00  0.00     0.016 A 
ATOM     11  C   UNL d   1     -40.235 -23.386 -12.876  0.00  0.00     0.016 A 
ATOM     12  C   UNL d   1     -38.214 -23.078 -12.553  0.00  0.00     0.016 A 
ATOM     13  C   UNL d   1     -39.493 -18.866 -11.863  0.00  0.00     0.001 A 
ATOM     14  C   UNL d   1     -38.557 -24.032 -12.791  0.00  0.00     0.001 A 
ATOM     15  C   UNL d   1     -39.574 -24.187 -12.953  0.00  0.00     0.001 A 
ATOM     16  C   UNL d   1     -40.511 -19.021 -12.026  0.00  0.00     0.001 A 
ENDROOT
TORSDOF 0
ENDMDL
MODEL 5
REMARK VINA RESULT:    -7.301     10.835     11.914
REMARK INTER + INTRA:          -7.301
REMARK INTER:                  -7.301
REMARK INTRA:                   0.000
REMARK UNBOUND:                 0.000
REMARK  0 active torsions:
REMARK  status: ('A' for Active; 'I' for Inactive)
ROOT
ATOM      1  O   UNL d   1     -41.532 -21.766 -12.692  0.00  0.00    -0.287 OA
ATOM      2  O   UNL d   1     -37.578 -21.487 -12.153  0.00  0.00    -0.287 OA
ATOM      3  C   UNL d   1     -39.145 -20.749 -12.173  0.00  0.00     0.029 A 
ATOM      4  C   UNL d   1     -40.134 -20.819 -12.308  0.00  0.00     0.029 A 
ATOM      5  C   UNL d   1     -38.977 -22.434 -12.537  0.00  0.00     0.029 A 
ATOM      6  C   UNL d   1     -39.965 -22.504 -12.672  0.00  0.00     0.029 A 
ATOM      7  C   UNL d   1     -40.544 -21.696 -12.557  0.00  0.00     0.194 A 
ATOM      8  C   UNL d   1     -38.567 -21.557 -12.288  0.00  0.00     0.194 A 
ATOM      9  C   UNL d   1     -38.704 -19.842 -11.914  0.00  0.00     0.016 A 
ATOM     10  C   UNL d   1     -40.750 -19.987 -12.192  0.00  0.00     0.016 A 
ATOM     11  C   UNL d   1     -38.361 -23.266 -12.653  0.00  0.00     0.016 A 
ATOM     12  C   UNL d   1     -40.407 -23.411 -12.931  0.00  0.00     0.016 A 
ATOM     13  C   UNL d   1     -40.330 -19.069 -11.933  0.00  0.00     0.001 A 
ATOM     14  C   UNL d   1     -39.810 -24.257 -13.052  0.00  0.00     0.001 A 
ATOM     15  C   UNL d   1     -38.780 -24.184 -12.912  0.00  0.00     0.001 A 
ATOM     16  C   UNL d   1     -39.300 -18.997 -11.792  0.00  0.00     0.001 A 
ENDROOT
TORSDOF 0
ENDMDL
