MODEL 1
REMARK VINA RESULT:   -10.514      0.000      0.000
REMARK INTER + INTRA:          -5.232
REMARK INTER:                 -14.135
REMARK INTRA:                   8.903
REMARK UNBOUND:                 8.969
REMARK  9 active torsions:
REMARK  status: ('A' for Active; 'I' for Inactive)
REMARK    1  A    between atoms: O_3  and  C_17 
REMARK    2  A    between atoms: O_4  and  C_18 
REMARK    3  A    between atoms: O_5  and  C_19 
REMARK    4  A    between atoms: O_7  and  C_32 
REMARK    5  A    between atoms: O_9  and  C_36 
REMARK    6  A    between atoms: O_10  and  C_40 
REMARK    7  A    between atoms: C_11  and  C_13 
REMARK    8  A    between atoms: C_15  and  C_20 
REMARK    9  A    between atoms: C_22  and  C_29 
ROOT
ATOM      1  O   UNL d   1      38.545  20.801  37.654  0.00  0.00    -0.308 OA
ATOM      2  O   UNL d   1      37.335  23.181  39.167  0.00  0.00    -0.287 OA
ATOM      3  C   UNL d   1      37.054  20.686  36.727  0.00  0.00     0.045 A 
ATOM      4  C   UNL d   1      37.585  21.144  37.439  0.00  0.00     0.107 A 
ATOM      5  C   UNL d   1      37.194  21.919  37.934  0.00  0.00     0.082 A 
ATOM      6  C   UNL d   1      36.131  21.003  36.509  0.00  0.00     0.082 A 
ATOM      7  C   UNL d   1      36.271  22.237  37.717  0.00  0.00     0.085 A 
ATOM      8  C   UNL d   1      35.740  21.779  37.004  0.00  0.00     0.075 A 
ATOM      9  C   UNL d   1      39.105  21.273  38.395  0.00  0.00     0.090 A 
ATOM     10  C   UNL d   1      37.736  22.406  38.678  0.00  0.00     0.190 A 
ATOM     11  C   UNL d   1      38.697  22.081  38.911  0.00  0.00     0.094 A 
ENDROOT
BRANCH   3  12
ATOM     12  C   UNL d   1      37.445  19.910  36.232  0.00  0.00     0.014 A 
ATOM     13  C   UNL d   1      38.003  20.067  35.417  0.00  0.00     0.029 A 
ATOM     14  C   UNL d   1      38.394  19.291  34.922  0.00  0.00    -0.001 A 
ATOM     15  C   UNL d   1      38.228  18.358  35.242  0.00  0.00     0.017 A 
ATOM     16  C   UNL d   1      37.670  18.201  36.057  0.00  0.00     0.038 A 
ATOM     17  C   UNL d   1      37.279  18.977  36.552  0.00  0.00     0.076 A 
BRANCH  14  18
ATOM     18  C   UNL d   1      38.952  19.448  34.107  0.00  0.00     0.090 A 
ATOM     19  O   UNL d   1      38.948  20.344  33.663  0.00  0.00    -0.309 OA
ATOM     20  C   UNL d   1      39.506  20.501  32.848  0.00  0.00     0.095 A 
ATOM     21  C   UNL d   1      40.067  19.761  32.477  0.00  0.00     0.081 A 
ATOM     22  C   UNL d   1      39.492  21.440  32.397  0.00  0.00     0.075 A 
ATOM     23  C   UNL d   1      40.071  18.865  32.920  0.00  0.00     0.190 A 
ATOM     24  C   UNL d   1      40.653  19.910  31.628  0.00  0.00     0.085 A 
ATOM     25  O   UNL d   1      40.632  18.125  32.548  0.00  0.00    -0.287 OA
ATOM     26  C   UNL d   1      39.513  18.708  33.735  0.00  0.00     0.094 A 
ATOM     27  C   UNL d   1      40.655  20.841  31.161  0.00  0.00     0.074 A 
ATOM     28  C   UNL d   1      40.070  21.611  31.548  0.00  0.00     0.071 A 
BRANCH  24  29
ATOM     29  O   UNL d   1      41.211  19.163  31.265  0.00  0.00    -0.360 OA
ATOM     30  H   UNL d   1      41.494  19.226  30.717  0.00  0.00     0.217 HD
ENDBRANCH  24  29
BRANCH  28  31
ATOM     31  O   UNL d   1      40.064  22.509  31.107  0.00  0.00    -0.361 OA
ATOM     32  H   UNL d   1      40.057  23.024  31.453  0.00  0.00     0.217 HD
ENDBRANCH  28  31
ENDBRANCH  14  18
BRANCH  17  33
ATOM     33  O   UNL d   1      36.721  18.820  37.367  0.00  0.00    -0.360 OA
ATOM     34  H   UNL d   1      36.188  18.506  37.322  0.00  0.00     0.217 HD
ENDBRANCH  17  33
ENDBRANCH   3  12
BRANCH   6  35
ATOM     35  O   UNL d   1      35.599  20.545  35.797  0.00  0.00    -0.360 OA
ATOM     36  H   UNL d   1      35.739  19.964  35.631  0.00  0.00     0.217 HD
ENDBRANCH   6  35
BRANCH   9  37
ATOM     37  C   UNL d   1      40.028  20.952  38.610  0.00  0.00    -0.002 A 
ATOM     38  C   UNL d   1      40.804  21.578  38.535  0.00  0.00     0.017 A 
ATOM     39  C   UNL d   1      41.727  21.258  38.749  0.00  0.00     0.037 A 
ATOM     40  C   UNL d   1      41.873  20.312  39.038  0.00  0.00     0.065 A 
ATOM     41  C   UNL d   1      41.097  19.686  39.112  0.00  0.00     0.037 A 
ATOM     42  C   UNL d   1      40.174  20.007  38.898  0.00  0.00     0.017 A 
BRANCH  40  43
ATOM     43  O   UNL d   1      42.796  19.991  39.252  0.00  0.00    -0.361 OA
ATOM     44  H   UNL d   1      43.056  19.543  38.909  0.00  0.00     0.217 HD
ENDBRANCH  40  43
ENDBRANCH   9  37
BRANCH   7  45
ATOM     45  O   UNL d   1      35.880  23.013  38.212  0.00  0.00    -0.360 OA
ATOM     46  H   UNL d   1      36.134  23.576  38.156  0.00  0.00     0.217 HD
ENDBRANCH   7  45
TORSDOF 9
ENDMDL
MODEL 2
REMARK VINA RESULT:   -10.371      1.546      5.512
REMARK INTER + INTRA:          -5.039
REMARK INTER:                 -13.785
REMARK INTRA:                   8.746
REMARK UNBOUND:                 8.969
REMARK  9 active torsions:
REMARK  status: ('A' for Active; 'I' for Inactive)
REMARK    1  A    between atoms: O_3  and  C_17 
REMARK    2  A    between atoms: O_4  and  C_18 
REMARK    3  A    between atoms: O_5  and  C_19 
REMARK    4  A    between atoms: O_7  and  C_32 
REMARK    5  A    between atoms: O_9  and  C_36 
REMARK    6  A    between atoms: O_10  and  C_40 
REMARK    7  A    between atoms: C_11  and  C_13 
REMARK    8  A    between atoms: C_15  and  C_20 
REMARK    9  A    between atoms: C_22  and  C_29 
ROOT
ATOM      1  O   UNL d   1      40.322  19.893  35.977  0.00  0.00    -0.308 OA
ATOM      2  O   UNL d   1      42.321  20.053  33.654  0.00  0.00    -0.287 OA
ATOM      3  C   UNL d   1      39.036  19.652  34.799  0.00  0.00     0.045 A 
ATOM      4  C   UNL d   1      40.007  19.798  34.988  0.00  0.00     0.107 A 
ATOM      5  C   UNL d   1      40.662  19.850  34.234  0.00  0.00     0.082 A 
ATOM      6  C   UNL d   1      38.720  19.558  33.855  0.00  0.00     0.082 A 
ATOM      7  C   UNL d   1      40.345  19.757  33.290  0.00  0.00     0.085 A 
ATOM      8  C   UNL d   1      39.374  19.610  33.100  0.00  0.00     0.075 A 
ATOM      9  C   UNL d   1      41.331  20.045  36.182  0.00  0.00     0.090 A 
ATOM     10  C   UNL d   1      41.676  20.002  34.416  0.00  0.00     0.190 A 
ATOM     11  C   UNL d   1      42.013  20.100  35.396  0.00  0.00     0.094 A 
ENDROOT
BRANCH   3  12
ATOM     12  C   UNL d   1      38.382  19.599  35.553  0.00  0.00     0.014 A 
ATOM     13  C   UNL d   1      38.037  20.437  35.975  0.00  0.00     0.029 A 
ATOM     14  C   UNL d   1      37.383  20.385  36.729  0.00  0.00    -0.001 A 
ATOM     15  C   UNL d   1      37.073  19.494  37.061  0.00  0.00     0.017 A 
ATOM     16  C   UNL d   1      37.417  18.656  36.639  0.00  0.00     0.038 A 
ATOM     17  C   UNL d   1      38.072  18.708  35.885  0.00  0.00     0.076 A 
BRANCH  14  18
ATOM     18  C   UNL d   1      37.038  21.223  37.151  0.00  0.00     0.090 A 
ATOM     19  O   UNL d   1      37.397  21.522  38.036  0.00  0.00    -0.309 OA
ATOM     20  C   UNL d   1      37.052  22.360  38.458  0.00  0.00     0.095 A 
ATOM     21  C   UNL d   1      36.349  22.900  37.996  0.00  0.00     0.081 A 
ATOM     22  C   UNL d   1      37.436  22.659  39.380  0.00  0.00     0.075 A 
ATOM     23  C   UNL d   1      35.990  22.602  37.112  0.00  0.00     0.190 A 
ATOM     24  C   UNL d   1      35.980  23.776  38.423  0.00  0.00     0.085 A 
ATOM     25  O   UNL d   1      35.286  23.141  36.650  0.00  0.00    -0.287 OA
ATOM     26  C   UNL d   1      36.335  21.763  36.689  0.00  0.00     0.094 A 
ATOM     27  C   UNL d   1      36.349  24.093  39.345  0.00  0.00     0.074 A 
ATOM     28  C   UNL d   1      37.082  23.531  39.826  0.00  0.00     0.071 A 
BRANCH  24  29
ATOM     29  O   UNL d   1      35.277  24.308  37.953  0.00  0.00    -0.360 OA
ATOM     30  H   UNL d   1      35.434  24.689  37.489  0.00  0.00     0.217 HD
ENDBRANCH  24  29
BRANCH  28  31
ATOM     31  O   UNL d   1      37.444  23.826  40.711  0.00  0.00    -0.361 OA
ATOM     32  H   UNL d   1      37.079  24.134  41.107  0.00  0.00     0.217 HD
ENDBRANCH  28  31
ENDBRANCH  14  18
BRANCH  17  33
ATOM     33  O   UNL d   1      38.417  17.870  35.463  0.00  0.00    -0.360 OA
ATOM     34  H   UNL d   1      38.997  17.682  35.575  0.00  0.00     0.217 HD
ENDBRANCH  17  33
ENDBRANCH   3  12
BRANCH   6  35
ATOM     35  O   UNL d   1      37.749  19.412  33.665  0.00  0.00    -0.360 OA
ATOM     36  H   UNL d   1      37.510  18.840  33.692  0.00  0.00     0.217 HD
ENDBRANCH   6  35
BRANCH   9  37
ATOM     37  C   UNL d   1      41.644  20.138  37.128  0.00  0.00    -0.002 A 
ATOM     38  C   UNL d   1      41.324  20.904  37.686  0.00  0.00     0.017 A 
ATOM     39  C   UNL d   1      41.636  20.998  38.632  0.00  0.00     0.037 A 
ATOM     40  C   UNL d   1      42.267  20.326  39.019  0.00  0.00     0.065 A 
ATOM     41  C   UNL d   1      42.586  19.560  38.460  0.00  0.00     0.037 A 
ATOM     42  C   UNL d   1      42.274  19.467  37.515  0.00  0.00     0.017 A 
BRANCH  40  43
ATOM     43  O   UNL d   1      42.579  20.419  39.964  0.00  0.00    -0.361 OA
ATOM     44  H   UNL d   1      43.167  20.579  40.083  0.00  0.00     0.217 HD
ENDBRANCH  40  43
ENDBRANCH   9  37
BRANCH   7  45
ATOM     45  O   UNL d   1      41.000  19.809  32.536  0.00  0.00    -0.360 OA
ATOM     46  H   UNL d   1      40.936  20.245  32.100  0.00  0.00     0.217 HD
ENDBRANCH   7  45
TORSDOF 9
ENDMDL
MODEL 3
REMARK VINA RESULT:   -10.130     22.169     24.695
REMARK INTER + INTRA:          -4.714
REMARK INTER:                 -13.594
REMARK INTRA:                   8.881
REMARK UNBOUND:                 8.969
REMARK  9 active torsions:
REMARK  status: ('A' for Active; 'I' for Inactive)
REMARK    1  A    between atoms: O_3  and  C_17 
REMARK    2  A    between atoms: O_4  and  C_18 
REMARK    3  A    between atoms: O_5  and  C_19 
REMARK    4  A    between atoms: O_7  and  C_32 
REMARK    5  A    between atoms: O_9  and  C_36 
REMARK    6  A    between atoms: O_10  and  C_40 
REMARK    7  A    between atoms: C_11  and  C_13 
REMARK    8  A    between atoms: C_15  and  C_20 
REMARK    9  A    between atoms: C_22  and  C_29 
ROOT
ATOM      1  O   UNL d   1      26.967   0.005  40.161  0.00  0.00    -0.308 OA
ATOM      2  O   UNL d   1      25.150   2.435  40.623  0.00  0.00    -0.287 OA
ATOM      3  C   UNL d   1      27.834   0.937  38.945  0.00  0.00     0.045 A 
ATOM      4  C   UNL d   1      27.100   0.887  39.623  0.00  0.00     0.107 A 
ATOM      5  C   UNL d   1      26.506   1.677  39.776  0.00  0.00     0.082 A 
ATOM      6  C   UNL d   1      27.974   1.777  38.421  0.00  0.00     0.082 A 
ATOM      7  C   UNL d   1      26.646   2.517  39.252  0.00  0.00     0.085 A 
ATOM      8  C   UNL d   1      27.380   2.567  38.574  0.00  0.00     0.075 A 
ATOM      9  C   UNL d   1      26.204  -0.055  40.868  0.00  0.00     0.090 A 
ATOM     10  C   UNL d   1      25.738   1.639  40.478  0.00  0.00     0.190 A 
ATOM     11  C   UNL d   1      25.585   0.768  41.028  0.00  0.00     0.094 A 
ENDROOT
BRANCH   3  12
ATOM     12  C   UNL d   1      28.428   0.147  38.792  0.00  0.00     0.014 A 
ATOM     13  C   UNL d   1      28.197  -0.522  38.086  0.00  0.00     0.029 A 
ATOM     14  C   UNL d   1      28.791  -1.312  37.933  0.00  0.00    -0.001 A 
ATOM     15  C   UNL d   1      29.615  -1.433  38.486  0.00  0.00     0.017 A 
ATOM     16  C   UNL d   1      29.846  -0.763  39.192  0.00  0.00     0.038 A 
ATOM     17  C   UNL d   1      29.252   0.026  39.345  0.00  0.00     0.076 A 
BRANCH  14  18
ATOM     18  C   UNL d   1      28.560  -1.982  37.226  0.00  0.00     0.090 A 
ATOM     19  O   UNL d   1      27.936  -1.732  36.486  0.00  0.00    -0.309 OA
ATOM     20  C   UNL d   1      27.706  -2.402  35.780  0.00  0.00     0.095 A 
ATOM     21  C   UNL d   1      28.099  -3.320  35.814  0.00  0.00     0.081 A 
ATOM     22  C   UNL d   1      27.054  -2.127  35.014  0.00  0.00     0.075 A 
ATOM     23  C   UNL d   1      28.723  -3.570  36.554  0.00  0.00     0.190 A 
ATOM     24  C   UNL d   1      27.868  -4.028  35.085  0.00  0.00     0.085 A 
ATOM     25  O   UNL d   1      29.117  -4.488  36.589  0.00  0.00    -0.287 OA
ATOM     26  C   UNL d   1      28.954  -2.900  37.261  0.00  0.00     0.094 A 
ATOM     27  C   UNL d   1      27.219  -3.776  34.311  0.00  0.00     0.074 A 
ATOM     28  C   UNL d   1      26.809  -2.819  34.275  0.00  0.00     0.071 A 
BRANCH  24  29
ATOM     29  O   UNL d   1      28.268  -4.944  35.129  0.00  0.00    -0.360 OA
ATOM     30  H   UNL d   1      28.526  -5.194  34.624  0.00  0.00     0.217 HD
ENDBRANCH  24  29
BRANCH  28  31
ATOM     31  O   UNL d   1      26.184  -2.566  33.536  0.00  0.00    -0.361 OA
ATOM     32  H   UNL d   1      26.247  -2.019  33.251  0.00  0.00     0.217 HD
ENDBRANCH  28  31
ENDBRANCH  14  18
BRANCH  17  33
ATOM     33  O   UNL d   1      29.483   0.696  40.051  0.00  0.00    -0.360 OA
ATOM     34  H   UNL d   1      29.679   1.261  39.890  0.00  0.00     0.217 HD
ENDBRANCH  17  33
ENDBRANCH   3  12
BRANCH   6  35
ATOM     35  O   UNL d   1      28.708   1.827  37.744  0.00  0.00    -0.360 OA
ATOM     36  H   UNL d   1      29.232   2.130  37.876  0.00  0.00     0.217 HD
ENDBRANCH   6  35
BRANCH   9  37
ATOM     37  C   UNL d   1      26.067  -0.897  41.390  0.00  0.00    -0.002 A 
ATOM     38  C   UNL d   1      26.535  -1.023  42.265  0.00  0.00     0.017 A 
ATOM     39  C   UNL d   1      26.399  -1.865  42.788  0.00  0.00     0.037 A 
ATOM     40  C   UNL d   1      25.795  -2.580  42.435  0.00  0.00     0.065 A 
ATOM     41  C   UNL d   1      25.327  -2.453  41.560  0.00  0.00     0.037 A 
ATOM     42  C   UNL d   1      25.464  -1.611  41.038  0.00  0.00     0.017 A 
BRANCH  40  43
ATOM     43  O   UNL d   1      25.658  -3.422  42.957  0.00  0.00    -0.361 OA
ATOM     44  H   UNL d   1      25.634  -3.402  43.577  0.00  0.00     0.217 HD
ENDBRANCH  40  43
ENDBRANCH   9  37
BRANCH   7  45
ATOM     45  O   UNL d   1      26.053   3.307  39.405  0.00  0.00    -0.360 OA
ATOM     46  H   UNL d   1      25.464   3.295  39.209  0.00  0.00     0.217 HD
ENDBRANCH   7  45
TORSDOF 9
ENDMDL
MODEL 4
REMARK VINA RESULT:    -9.837     22.561     25.475
REMARK INTER + INTRA:          -4.318
REMARK INTER:                 -13.009
REMARK INTRA:                   8.691
REMARK UNBOUND:                 8.969
REMARK  9 active torsions:
REMARK  status: ('A' for Active; 'I' for Inactive)
REMARK    1  A    between atoms: O_3  and  C_17 
REMARK    2  A    between atoms: O_4  and  C_18 
REMARK    3  A    between atoms: O_5  and  C_19 
REMARK    4  A    between atoms: O_7  and  C_32 
REMARK    5  A    between atoms: O_9  and  C_36 
REMARK    6  A    between atoms: O_10  and  C_40 
REMARK    7  A    between atoms: C_11  and  C_13 
REMARK    8  A    between atoms: C_15  and  C_20 
REMARK    9  A    between atoms: C_22  and  C_29 
ROOT
ATOM      1  O   UNL d   1      27.727  -2.539  40.570  0.00  0.00    -0.308 OA
ATOM      2  O   UNL d   1      27.093  -5.420  39.724  0.00  0.00    -0.287 OA
ATOM      3  C   UNL d   1      28.068  -2.164  38.884  0.00  0.00     0.045 A 
ATOM      4  C   UNL d   1      27.793  -2.835  39.573  0.00  0.00     0.107 A 
ATOM      5  C   UNL d   1      27.585  -3.774  39.301  0.00  0.00     0.082 A 
ATOM      6  C   UNL d   1      28.135  -2.433  37.923  0.00  0.00     0.082 A 
ATOM      7  C   UNL d   1      27.653  -4.044  38.340  0.00  0.00     0.085 A 
ATOM      8  C   UNL d   1      27.928  -3.373  37.651  0.00  0.00     0.075 A 
ATOM      9  C   UNL d   1      27.441  -3.232  41.293  0.00  0.00     0.090 A 
ATOM     10  C   UNL d   1      27.298  -4.483  40.007  0.00  0.00     0.190 A 
ATOM     11  C   UNL d   1      27.225  -4.211  41.010  0.00  0.00     0.094 A 
ENDROOT
BRANCH   3  12
ATOM     12  C   UNL d   1      28.275  -1.224  39.156  0.00  0.00     0.014 A 
ATOM     13  C   UNL d   1      27.538  -0.555  39.242  0.00  0.00     0.029 A 
ATOM     14  C   UNL d   1      27.745   0.385  39.514  0.00  0.00    -0.001 A 
ATOM     15  C   UNL d   1      28.690   0.655  39.699  0.00  0.00     0.017 A 
ATOM     16  C   UNL d   1      29.427  -0.015  39.613  0.00  0.00     0.038 A 
ATOM     17  C   UNL d   1      29.220  -0.954  39.341  0.00  0.00     0.076 A 
BRANCH  14  18
ATOM     18  C   UNL d   1      27.008   1.055  39.601  0.00  0.00     0.090 A 
ATOM     19  O   UNL d   1      26.152   0.801  40.051  0.00  0.00    -0.309 OA
ATOM     20  C   UNL d   1      25.414   1.471  40.137  0.00  0.00     0.095 A 
ATOM     21  C   UNL d   1      25.533   2.395  39.774  0.00  0.00     0.081 A 
ATOM     22  C   UNL d   1      24.528   1.191  40.609  0.00  0.00     0.075 A 
ATOM     23  C   UNL d   1      26.389   2.649  39.323  0.00  0.00     0.190 A 
ATOM     24  C   UNL d   1      24.774   3.103  39.856  0.00  0.00     0.085 A 
ATOM     25  O   UNL d   1      26.507   3.573  38.960  0.00  0.00    -0.287 OA
ATOM     26  C   UNL d   1      27.126   1.979  39.237  0.00  0.00     0.094 A 
ATOM     27  C   UNL d   1      23.879   2.846  40.324  0.00  0.00     0.074 A 
ATOM     28  C   UNL d   1      23.755   1.883  40.703  0.00  0.00     0.071 A 
BRANCH  24  29
ATOM     29  O   UNL d   1      24.903   4.024  39.489  0.00  0.00    -0.360 OA
ATOM     30  H   UNL d   1      24.607   4.196  38.971  0.00  0.00     0.217 HD
ENDBRANCH  24  29
BRANCH  28  31
ATOM     31  O   UNL d   1      22.901   1.625  41.154  0.00  0.00    -0.361 OA
ATOM     32  H   UNL d   1      22.914   1.285  41.672  0.00  0.00     0.217 HD
ENDBRANCH  28  31
ENDBRANCH  14  18
BRANCH  17  33
ATOM     33  O   UNL d   1      29.957  -1.624  39.254  0.00  0.00    -0.360 OA
ATOM     34  H   UNL d   1      30.157  -1.932  39.754  0.00  0.00     0.217 HD
ENDBRANCH  17  33
ENDBRANCH   3  12
BRANCH   6  35
ATOM     35  O   UNL d   1      28.410  -1.763  37.234  0.00  0.00    -0.360 OA
ATOM     36  H   UNL d   1      28.872  -1.893  36.842  0.00  0.00     0.217 HD
ENDBRANCH   6  35
BRANCH   9  37
ATOM     37  C   UNL d   1      27.375  -2.959  42.253  0.00  0.00    -0.002 A 
ATOM     38  C   UNL d   1      28.112  -3.187  42.889  0.00  0.00     0.017 A 
ATOM     39  C   UNL d   1      28.046  -2.914  43.849  0.00  0.00     0.037 A 
ATOM     40  C   UNL d   1      27.243  -2.413  44.172  0.00  0.00     0.065 A 
ATOM     41  C   UNL d   1      26.507  -2.184  43.535  0.00  0.00     0.037 A 
ATOM     42  C   UNL d   1      26.573  -2.458  42.576  0.00  0.00     0.017 A 
BRANCH  40  43
ATOM     43  O   UNL d   1      27.177  -2.140  45.132  0.00  0.00    -0.361 OA
ATOM     44  H   UNL d   1      27.684  -1.949  45.436  0.00  0.00     0.217 HD
ENDBRANCH  40  43
ENDBRANCH   9  37
BRANCH   7  45
ATOM     45  O   UNL d   1      27.446  -4.983  38.069  0.00  0.00    -0.360 OA
ATOM     46  H   UNL d   1      26.894  -5.120  37.820  0.00  0.00     0.217 HD
ENDBRANCH   7  45
TORSDOF 9
ENDMDL
MODEL 5
REMARK VINA RESULT:    -9.823     22.360     25.323
REMARK INTER + INTRA:          -4.299
REMARK INTER:                 -13.267
REMARK INTRA:                   8.968
REMARK UNBOUND:                 8.969
REMARK  9 active torsions:
REMARK  status: ('A' for Active; 'I' for Inactive)
REMARK    1  A    between atoms: O_3  and  C_17 
REMARK    2  A    between atoms: O_4  and  C_18 
REMARK    3  A    between atoms: O_5  and  C_19 
REMARK    4  A    between atoms: O_7  and  C_32 
REMARK    5  A    between atoms: O_9  and  C_36 
REMARK    6  A    between atoms: O_10  and  C_40 
REMARK    7  A    between atoms: C_11  and  C_13 
REMARK    8  A    between atoms: C_15  and  C_20 
REMARK    9  A    between atoms: C_22  and  C_29 
ROOT
ATOM      1  O   UNL d   1      28.670  -2.543  39.188  0.00  0.00    -0.308 OA
ATOM      2  O   UNL d   1      29.382  -5.213  40.525  0.00  0.00    -0.287 OA
ATOM      3  C   UNL d   1      29.156  -1.721  40.667  0.00  0.00     0.045 A 
ATOM      4  C   UNL d   1      29.036  -2.577  40.163  0.00  0.00     0.107 A 
ATOM      5  C   UNL d   1      29.267  -3.448  40.595  0.00  0.00     0.082 A 
ATOM      6  C   UNL d   1      29.507  -1.738  41.603  0.00  0.00     0.082 A 
ATOM      7  C   UNL d   1      29.618  -3.465  41.531  0.00  0.00     0.085 A 
ATOM      8  C   UNL d   1      29.738  -2.609  42.035  0.00  0.00     0.075 A 
ATOM      9  C   UNL d   1      28.542  -3.430  38.657  0.00  0.00     0.090 A 
ATOM     10  C   UNL d   1      29.147  -4.347  40.083  0.00  0.00     0.190 A 
ATOM     11  C   UNL d   1      28.783  -4.339  39.107  0.00  0.00     0.094 A 
ENDROOT
BRANCH   3  12
ATOM     12  C   UNL d   1      28.925  -0.850  40.234  0.00  0.00     0.014 A 
ATOM     13  C   UNL d   1      28.012  -0.460  40.352  0.00  0.00     0.029 A 
ATOM     14  C   UNL d   1      27.781   0.412  39.919  0.00  0.00    -0.001 A 
ATOM     15  C   UNL d   1      28.463   0.894  39.369  0.00  0.00     0.017 A 
ATOM     16  C   UNL d   1      29.377   0.504  39.252  0.00  0.00     0.038 A 
ATOM     17  C   UNL d   1      29.608  -0.368  39.684  0.00  0.00     0.076 A 
BRANCH  14  18
ATOM     18  C   UNL d   1      26.868   0.802  40.037  0.00  0.00     0.090 A 
ATOM     19  O   UNL d   1      26.678   1.733  39.727  0.00  0.00    -0.309 OA
ATOM     20  C   UNL d   1      25.765   2.123  39.844  0.00  0.00     0.095 A 
ATOM     21  C   UNL d   1      25.041   1.582  40.272  0.00  0.00     0.081 A 
ATOM     22  C   UNL d   1      25.582   3.096  39.516  0.00  0.00     0.075 A 
ATOM     23  C   UNL d   1      25.231   0.650  40.582  0.00  0.00     0.190 A 
ATOM     24  C   UNL d   1      24.085   1.974  40.401  0.00  0.00     0.085 A 
ATOM     25  O   UNL d   1      24.507   0.108  41.009  0.00  0.00    -0.287 OA
ATOM     26  C   UNL d   1      26.144   0.260  40.464  0.00  0.00     0.094 A 
ATOM     27  C   UNL d   1      23.880   2.944  40.080  0.00  0.00     0.074 A 
ATOM     28  C   UNL d   1      24.634   3.509  39.635  0.00  0.00     0.071 A 
BRANCH  24  29
ATOM     29  O   UNL d   1      23.369   1.424  40.829  0.00  0.00    -0.360 OA
ATOM     30  H   UNL d   1      23.271   0.841  40.641  0.00  0.00     0.217 HD
ENDBRANCH  24  29
BRANCH  28  31
ATOM     31  O   UNL d   1      24.448   4.441  39.323  0.00  0.00    -0.361 OA
ATOM     32  H   UNL d   1      24.629   4.924  39.667  0.00  0.00     0.217 HD
ENDBRANCH  28  31
ENDBRANCH  14  18
BRANCH  17  33
ATOM     33  O   UNL d   1      30.521  -0.758  39.567  0.00  0.00    -0.360 OA
ATOM     34  H   UNL d   1      31.022  -0.399  39.633  0.00  0.00     0.217 HD
ENDBRANCH  17  33
ENDBRANCH   3  12
BRANCH   6  35
ATOM     35  O   UNL d   1      29.627  -0.882  42.107  0.00  0.00    -0.360 OA
ATOM     36  H   UNL d   1      29.762  -0.895  42.712  0.00  0.00     0.217 HD
ENDBRANCH   6  35
BRANCH   9  37
ATOM     37  C   UNL d   1      28.191  -3.410  37.721  0.00  0.00    -0.002 A 
ATOM     38  C   UNL d   1      28.812  -3.230  36.958  0.00  0.00     0.017 A 
ATOM     39  C   UNL d   1      28.462  -3.209  36.022  0.00  0.00     0.037 A 
ATOM     40  C   UNL d   1      27.490  -3.368  35.848  0.00  0.00     0.065 A 
ATOM     41  C   UNL d   1      26.868  -3.547  36.611  0.00  0.00     0.037 A 
ATOM     42  C   UNL d   1      27.220  -3.568  37.547  0.00  0.00     0.017 A 
BRANCH  40  43
ATOM     43  O   UNL d   1      27.139  -3.347  34.912  0.00  0.00    -0.361 OA
ATOM     44  H   UNL d   1      27.467  -3.070  34.463  0.00  0.00     0.217 HD
ENDBRANCH  40  43
ENDBRANCH   9  37
BRANCH   7  45
ATOM     45  O   UNL d   1      29.849  -4.336  41.964  0.00  0.00    -0.360 OA
ATOM     46  H   UNL d   1      29.865  -4.855  41.625  0.00  0.00     0.217 HD
ENDBRANCH   7  45
TORSDOF 9
ENDMDL
