MODEL 1
REMARK VINA RESULT:   -12.638      0.000      0.000
REMARK INTER + INTRA:         -14.287
REMARK INTER:                 -15.609
REMARK INTRA:                   1.322
REMARK UNBOUND:                 1.307
REMARK  6 active torsions:
REMARK  status: ('A' for Active; 'I' for Inactive)
REMARK    1  A    between atoms: C_22  and  O_1 
REMARK    2  A    between atoms: C_24  and  O_2 
REMARK    3  A    between atoms: O_3  and  C_30 
REMARK    4  A    between atoms: O_4  and  C_33 
REMARK    5  A    between atoms: C_14  and  C_30 
REMARK    6  A    between atoms: C_19  and  C_33 
ROOT
ATOM      1  C   UNL d   1      11.996 -36.099   8.856  0.00  0.00    -0.028 A 
ATOM      2  C   UNL d   1      11.932 -35.237   9.359  0.00  0.00     0.007 A 
ATOM      3  C   UNL d   1      11.456 -35.192  10.284  0.00  0.00    -0.033 A 
ATOM      4  C   UNL d   1      12.457 -36.128   7.969  0.00  0.00    -0.013 A 
ATOM      5  C   UNL d   1      11.041 -36.056  10.691  0.00  0.00     0.007 A 
ATOM      6  C   UNL d   1      11.589 -36.975   9.244  0.00  0.00     0.011 A 
ATOM      7  C   UNL d   1      12.853 -35.294   7.584  0.00  0.00    -0.069 A 
ATOM      8  C   UNL d   1      11.107 -36.954  10.167  0.00  0.00     0.007 A 
ATOM      9  C   UNL d   1      10.539 -36.033  11.653  0.00  0.00     0.010 A 
ATOM     10  C   UNL d   1      13.336 -35.307   6.661  0.00  0.00     0.038 A 
ATOM     11  C   UNL d   1      12.329 -34.403   8.974  0.00  0.00     0.033 A 
ATOM     12  C   UNL d   1      11.399 -34.245  10.811  0.00  0.00     0.044 A 
ATOM     13  C   UNL d   1      12.516 -37.033   7.457  0.00  0.00     0.016 A 
ATOM     14  C   UNL d   1      13.407 -36.202   6.132  0.00  0.00     0.053 A 
ATOM     15  C   UNL d   1      11.888 -37.068   8.635  0.00  0.00     0.016 C 
ATOM     16  C   UNL d   1      12.994 -37.070   6.533  0.00  0.00     0.022 A 
ATOM     17  C   UNL d   1      10.470 -35.098  12.198  0.00  0.00     0.157 A 
ATOM     18  C   UNL d   1      12.789 -34.432   8.087  0.00  0.00    -0.022 A 
ATOM     19  C   UNL d   1      10.902 -34.198  11.775  0.00  0.00     0.148 A 
ATOM     20  C   UNL d   1      11.855 -34.362   9.893  0.00  0.00     0.016 C 
ATOM     21  C   UNL d   1      12.188 -37.087   8.056  0.00  0.00     0.021 C 
ATOM     22  C   UNL d   1      13.758 -34.391   6.265  0.00  0.00    -0.005 A 
ATOM     23  C   UNL d   1      13.905 -36.241   5.169  0.00  0.00     0.021 A 
ATOM     24  C   UNL d   1      14.261 -34.405   5.303  0.00  0.00    -0.014 A 
ATOM     25  C   UNL d   1      10.349 -37.012  11.581  0.00  0.00     0.020 C 
ATOM     26  C   UNL d   1      14.335 -35.337   4.751  0.00  0.00     0.006 A 
ATOM     27  C   UNL d   1      13.685 -33.537   6.781  0.00  0.00     0.011 C 
ATOM     28  C   UNL d   1      14.654 -33.565   4.928  0.00  0.00     0.010 C 
ENDROOT
BRANCH   9  29
ATOM     29  C   UNL d   1      10.045 -36.502  12.385  0.00  0.00     0.176 C 
BRANCH  29  30
ATOM     30  O   UNL d   1      10.037 -37.501  12.424  0.00  0.00    -0.400 OA
ATOM     31  H   UNL d   1       9.505 -37.803  12.523  0.00  0.00     0.209 HD
ENDBRANCH  29  30
ENDBRANCH   9  29
BRANCH  17  32
ATOM     32  O   UNL d   1      10.010 -35.066  13.086  0.00  0.00    -0.392 OA
ATOM     33  H   UNL d   1      10.335 -35.154  13.607  0.00  0.00     0.210 HD
ENDBRANCH  17  32
BRANCH  19  34
ATOM     34  O   UNL d   1      10.844 -33.331  12.269  0.00  0.00    -0.393 OA
ATOM     35  H   UNL d   1      11.247 -32.876  12.146  0.00  0.00     0.210 HD
ENDBRANCH  19  34
BRANCH  14  36
ATOM     36  C   UNL d   1      13.475 -37.060   5.623  0.00  0.00     0.149 C 
ATOM     37  O   UNL d   1      14.222 -37.697   5.816  0.00  0.00    -0.649 OA
BRANCH  36  38
ATOM     38  O   UNL d   1      12.797 -37.282   4.923  0.00  0.00    -0.776 OA
ATOM     39  H   UNL d   1      12.877 -37.084   4.341  0.00  0.00     0.167 HD
ENDBRANCH  36  38
ENDBRANCH  14  36
TORSDOF 6
ENDMDL
MODEL 2
REMARK VINA RESULT:   -12.584      2.423      3.764
REMARK INTER + INTRA:         -14.219
REMARK INTER:                 -15.530
REMARK INTRA:                   1.310
REMARK UNBOUND:                 1.307
REMARK  6 active torsions:
REMARK  status: ('A' for Active; 'I' for Inactive)
REMARK    1  A    between atoms: C_22  and  O_1 
REMARK    2  A    between atoms: C_24  and  O_2 
REMARK    3  A    between atoms: O_3  and  C_30 
REMARK    4  A    between atoms: O_4  and  C_33 
REMARK    5  A    between atoms: C_14  and  C_30 
REMARK    6  A    between atoms: C_19  and  C_33 
ROOT
ATOM      1  C   UNL d   1      10.109 -36.487  11.096  0.00  0.00    -0.028 A 
ATOM      2  C   UNL d   1      10.600 -37.037  11.772  0.00  0.00     0.007 A 
ATOM      3  C   UNL d   1      10.278 -37.081  12.762  0.00  0.00    -0.033 A 
ATOM      4  C   UNL d   1      10.430 -36.454  10.150  0.00  0.00    -0.013 A 
ATOM      5  C   UNL d   1       9.434 -36.546  13.051  0.00  0.00     0.007 A 
ATOM      6  C   UNL d   1       9.262 -35.943  11.364  0.00  0.00     0.011 A 
ATOM      7  C   UNL d   1      11.242 -36.972   9.879  0.00  0.00    -0.069 A 
ATOM      8  C   UNL d   1       8.922 -35.973  12.348  0.00  0.00     0.007 A 
ATOM      9  C   UNL d   1       9.079 -36.576  14.077  0.00  0.00     0.010 A 
ATOM     10  C   UNL d   1      11.588 -36.947   8.897  0.00  0.00     0.038 A 
ATOM     11  C   UNL d   1      11.412 -37.554  11.501  0.00  0.00     0.033 A 
ATOM     12  C   UNL d   1      10.827 -37.685  13.477  0.00  0.00     0.044 A 
ATOM     13  C   UNL d   1       9.908 -35.877   9.458  0.00  0.00     0.016 A 
ATOM     14  C   UNL d   1      11.082 -36.377   8.187  0.00  0.00     0.053 A 
ATOM     15  C   UNL d   1       9.424 -35.875  10.702  0.00  0.00     0.016 C 
ATOM     16  C   UNL d   1      10.236 -35.838   8.470  0.00  0.00     0.022 A 
ATOM     17  C   UNL d   1       9.612 -37.172  14.810  0.00  0.00     0.157 A 
ATOM     18  C   UNL d   1      11.733 -37.522  10.554  0.00  0.00    -0.022 A 
ATOM     19  C   UNL d   1      10.492 -37.731  14.508  0.00  0.00     0.148 A 
ATOM     20  C   UNL d   1      11.089 -37.596  12.483  0.00  0.00     0.016 C 
ATOM     21  C   UNL d   1       9.633 -35.853  10.084  0.00  0.00     0.021 C 
ATOM     22  C   UNL d   1      12.471 -37.516   8.626  0.00  0.00    -0.005 A 
ATOM     23  C   UNL d   1      11.423 -36.336   7.158  0.00  0.00     0.021 A 
ATOM     24  C   UNL d   1      12.831 -37.491   7.603  0.00  0.00    -0.014 A 
ATOM     25  C   UNL d   1       8.328 -35.960  13.839  0.00  0.00     0.020 C 
ATOM     26  C   UNL d   1      12.304 -36.897   6.864  0.00  0.00     0.006 A 
ATOM     27  C   UNL d   1      12.950 -38.062   9.315  0.00  0.00     0.011 C 
ATOM     28  C   UNL d   1      13.644 -38.012   7.343  0.00  0.00     0.010 C 
ENDROOT
BRANCH   9  29
ATOM     29  C   UNL d   1       8.423 -36.294  14.777  0.00  0.00     0.176 C 
BRANCH  29  30
ATOM     30  O   UNL d   1       7.570 -35.845  14.512  0.00  0.00    -0.400 OA
ATOM     31  H   UNL d   1       7.087 -35.845  14.900  0.00  0.00     0.209 HD
ENDBRANCH  29  30
ENDBRANCH   9  29
BRANCH  17  32
ATOM     32  O   UNL d   1       9.294 -37.208  15.757  0.00  0.00    -0.392 OA
ATOM     33  H   UNL d   1       8.756 -36.943  15.914  0.00  0.00     0.210 HD
ENDBRANCH  17  32
BRANCH  19  34
ATOM     34  O   UNL d   1      10.990 -38.284  15.175  0.00  0.00    -0.393 OA
ATOM     35  H   UNL d   1      11.211 -38.841  15.014  0.00  0.00     0.210 HD
ENDBRANCH  19  34
BRANCH  14  36
ATOM     36  C   UNL d   1      10.596 -35.829   7.506  0.00  0.00     0.149 C 
ATOM     37  O   UNL d   1      10.827 -34.863   7.385  0.00  0.00    -0.649 OA
BRANCH  36  38
ATOM     38  O   UNL d   1       9.880 -36.246   6.947  0.00  0.00    -0.776 OA
ATOM     39  H   UNL d   1       9.290 -36.070   7.017  0.00  0.00     0.167 HD
ENDBRANCH  36  38
ENDBRANCH  14  36
TORSDOF 6
ENDMDL
MODEL 3
REMARK VINA RESULT:   -12.163     19.984     21.526
REMARK INTER + INTRA:         -13.701
REMARK INTER:                 -15.019
REMARK INTRA:                   1.319
REMARK UNBOUND:                 1.307
REMARK  6 active torsions:
REMARK  status: ('A' for Active; 'I' for Inactive)
REMARK    1  A    between atoms: C_22  and  O_1 
REMARK    2  A    between atoms: C_24  and  O_2 
REMARK    3  A    between atoms: O_3  and  C_30 
REMARK    4  A    between atoms: O_4  and  C_33 
REMARK    5  A    between atoms: C_14  and  C_30 
REMARK    6  A    between atoms: C_19  and  C_33 
ROOT
ATOM      1  C   UNL d   1      26.186 -31.314  23.281  0.00  0.00    -0.028 A 
ATOM      2  C   UNL d   1      25.711 -31.868  23.965  0.00  0.00     0.007 A 
ATOM      3  C   UNL d   1      24.708 -32.121  23.844  0.00  0.00    -0.033 A 
ATOM      4  C   UNL d   1      27.149 -31.079  23.410  0.00  0.00    -0.013 A 
ATOM      5  C   UNL d   1      24.193 -31.794  23.001  0.00  0.00     0.007 A 
ATOM      6  C   UNL d   1      25.691 -30.975  22.430  0.00  0.00     0.011 A 
ATOM      7  C   UNL d   1      27.637 -31.397  24.223  0.00  0.00    -0.069 A 
ATOM      8  C   UNL d   1      24.688 -31.216  22.289  0.00  0.00     0.007 A 
ATOM      9  C   UNL d   1      23.147 -32.045  22.854  0.00  0.00     0.010 A 
ATOM     10  C   UNL d   1      28.641 -31.160  24.371  0.00  0.00     0.038 A 
ATOM     11  C   UNL d   1      26.199 -32.187  24.777  0.00  0.00     0.033 A 
ATOM     12  C   UNL d   1      24.213 -32.724  24.599  0.00  0.00     0.044 A 
ATOM     13  C   UNL d   1      27.630 -30.501  22.689  0.00  0.00     0.016 A 
ATOM     14  C   UNL d   1      29.142 -30.583  23.663  0.00  0.00     0.053 A 
ATOM     15  C   UNL d   1      26.346 -30.777  22.453  0.00  0.00     0.016 C 
ATOM     16  C   UNL d   1      28.634 -30.251  22.817  0.00  0.00     0.022 A 
ATOM     17  C   UNL d   1      22.632 -32.646  23.595  0.00  0.00     0.157 A 
ATOM     18  C   UNL d   1      27.162 -31.951  24.906  0.00  0.00    -0.022 A 
ATOM     19  C   UNL d   1      23.168 -32.988  24.474  0.00  0.00     0.148 A 
ATOM     20  C   UNL d   1      25.202 -32.436  24.654  0.00  0.00     0.016 C 
ATOM     21  C   UNL d   1      26.974 -30.623  22.537  0.00  0.00     0.021 C 
ATOM     22  C   UNL d   1      29.149 -31.516  25.260  0.00  0.00    -0.005 A 
ATOM     23  C   UNL d   1      30.187 -30.323  23.796  0.00  0.00     0.021 A 
ATOM     24  C   UNL d   1      30.194 -31.269  25.414  0.00  0.00    -0.014 A 
ATOM     25  C   UNL d   1      23.144 -31.540  21.990  0.00  0.00     0.020 C 
ATOM     26  C   UNL d   1      30.717 -30.669  24.677  0.00  0.00     0.006 A 
ATOM     27  C   UNL d   1      28.658 -32.070  25.934  0.00  0.00     0.011 C 
ATOM     28  C   UNL d   1      30.672 -31.593  26.231  0.00  0.00     0.010 C 
ENDROOT
BRANCH   9  29
ATOM     29  C   UNL d   1      22.311 -31.995  22.307  0.00  0.00     0.176 C 
BRANCH  29  30
ATOM     30  O   UNL d   1      22.241 -31.335  21.559  0.00  0.00    -0.400 OA
ATOM     31  H   UNL d   1      22.676 -31.319  21.118  0.00  0.00     0.209 HD
ENDBRANCH  29  30
ENDBRANCH   9  29
BRANCH  17  32
ATOM     32  O   UNL d   1      21.669 -32.884  23.470  0.00  0.00    -0.392 OA
ATOM     33  H   UNL d   1      21.511 -33.356  23.100  0.00  0.00     0.210 HD
ENDBRANCH  17  32
BRANCH  19  34
ATOM     34  O   UNL d   1      22.703 -33.542  25.164  0.00  0.00    -0.393 OA
ATOM     35  H   UNL d   1      22.976 -33.652  25.709  0.00  0.00     0.210 HD
ENDBRANCH  19  34
BRANCH  14  36
ATOM     36  C   UNL d   1      29.624 -30.029  22.984  0.00  0.00     0.149 C 
ATOM     37  O   UNL d   1      30.097 -30.473  22.223  0.00  0.00    -0.649 OA
BRANCH  36  38
ATOM     38  O   UNL d   1      29.633 -29.033  23.066  0.00  0.00    -0.776 OA
ATOM     39  H   UNL d   1      29.571 -28.767  23.622  0.00  0.00     0.167 HD
ENDBRANCH  36  38
ENDBRANCH  14  36
TORSDOF 6
ENDMDL
MODEL 4
REMARK VINA RESULT:   -12.025     19.931     21.953
REMARK INTER + INTRA:         -13.531
REMARK INTER:                 -14.866
REMARK INTRA:                   1.335
REMARK UNBOUND:                 1.307
REMARK  6 active torsions:
REMARK  status: ('A' for Active; 'I' for Inactive)
REMARK    1  A    between atoms: C_22  and  O_1 
REMARK    2  A    between atoms: C_24  and  O_2 
REMARK    3  A    between atoms: O_3  and  C_30 
REMARK    4  A    between atoms: O_4  and  C_33 
REMARK    5  A    between atoms: C_14  and  C_30 
REMARK    6  A    between atoms: C_19  and  C_33 
ROOT
ATOM      1  C   UNL d   1      24.508 -33.065  25.422  0.00  0.00    -0.028 A 
ATOM      2  C   UNL d   1      24.927 -32.377  24.829  0.00  0.00     0.007 A 
ATOM      3  C   UNL d   1      24.417 -32.001  24.002  0.00  0.00    -0.033 A 
ATOM      4  C   UNL d   1      25.009 -33.416  26.212  0.00  0.00    -0.013 A 
ATOM      5  C   UNL d   1      23.458 -32.346  23.790  0.00  0.00     0.007 A 
ATOM      6  C   UNL d   1      23.550 -33.424  25.229  0.00  0.00     0.011 A 
ATOM      7  C   UNL d   1      25.930 -33.080  26.410  0.00  0.00    -0.069 A 
ATOM      8  C   UNL d   1      23.021 -33.063  24.407  0.00  0.00     0.007 A 
ATOM      9  C   UNL d   1      22.908 -31.969  22.933  0.00  0.00     0.010 A 
ATOM     10  C   UNL d   1      26.465 -33.437  27.230  0.00  0.00     0.038 A 
ATOM     11  C   UNL d   1      25.848 -32.041  25.027  0.00  0.00     0.033 A 
ATOM     12  C   UNL d   1      24.893 -31.255  23.374  0.00  0.00     0.044 A 
ATOM     13  C   UNL d   1      24.559 -34.133  26.820  0.00  0.00     0.016 A 
ATOM     14  C   UNL d   1      26.034 -34.153  27.852  0.00  0.00     0.053 A 
ATOM     15  C   UNL d   1      23.833 -33.708  25.784  0.00  0.00     0.016 C 
ATOM     16  C   UNL d   1      25.075 -34.504  27.646  0.00  0.00     0.022 A 
ATOM     17  C   UNL d   1      23.363 -31.224  22.291  0.00  0.00     0.157 A 
ATOM     18  C   UNL d   1      26.349 -32.393  25.818  0.00  0.00    -0.022 A 
ATOM     19  C   UNL d   1      24.362 -30.864  22.512  0.00  0.00     0.148 A 
ATOM     20  C   UNL d   1      25.339 -31.670  24.207  0.00  0.00     0.016 C 
ATOM     21  C   UNL d   1      24.160 -33.937  26.299  0.00  0.00     0.021 C 
ATOM     22  C   UNL d   1      27.462 -33.058  27.425  0.00  0.00    -0.005 A 
ATOM     23  C   UNL d   1      26.571 -34.540  28.712  0.00  0.00     0.021 A 
ATOM     24  C   UNL d   1      28.018 -33.429  28.279  0.00  0.00    -0.014 A 
ATOM     25  C   UNL d   1      22.136 -32.562  23.165  0.00  0.00     0.020 C 
ATOM     26  C   UNL d   1      27.570 -34.176  28.927  0.00  0.00     0.006 A 
ATOM     27  C   UNL d   1      27.866 -32.370  26.821  0.00  0.00     0.011 C 
ATOM     28  C   UNL d   1      28.939 -33.086  28.467  0.00  0.00     0.010 C 
ENDROOT
BRANCH   9  29
ATOM     29  C   UNL d   1      22.085 -31.963  22.365  0.00  0.00     0.176 C 
BRANCH  29  30
ATOM     30  O   UNL d   1      21.182 -32.022  22.791  0.00  0.00    -0.400 OA
ATOM     31  H   UNL d   1      20.837 -32.531  22.716  0.00  0.00     0.209 HD
ENDBRANCH  29  30
ENDBRANCH   9  29
BRANCH  17  32
ATOM     32  O   UNL d   1      22.865 -30.869  21.500  0.00  0.00    -0.392 OA
ATOM     33  H   UNL d   1      22.345 -31.149  21.309  0.00  0.00     0.210 HD
ENDBRANCH  17  32
BRANCH  19  34
ATOM     34  O   UNL d   1      24.791 -30.177  21.926  0.00  0.00    -0.393 OA
ATOM     35  H   UNL d   1      24.595 -29.588  21.944  0.00  0.00     0.210 HD
ENDBRANCH  19  34
BRANCH  14  36
ATOM     36  C   UNL d   1      25.621 -34.841  28.449  0.00  0.00     0.149 C 
ATOM     37  O   UNL d   1      25.095 -34.556  29.250  0.00  0.00    -0.649 OA
BRANCH  36  38
ATOM     38  O   UNL d   1      25.734 -35.813  28.246  0.00  0.00    -0.776 OA
ATOM     39  H   UNL d   1      25.776 -36.004  27.658  0.00  0.00     0.167 HD
ENDBRANCH  36  38
ENDBRANCH  14  36
TORSDOF 6
ENDMDL
MODEL 5
REMARK VINA RESULT:   -11.993     42.191     45.334
REMARK INTER + INTRA:         -13.491
REMARK INTER:                 -14.801
REMARK INTRA:                   1.309
REMARK UNBOUND:                 1.307
REMARK  6 active torsions:
REMARK  status: ('A' for Active; 'I' for Inactive)
REMARK    1  A    between atoms: C_22  and  O_1 
REMARK    2  A    between atoms: C_24  and  O_2 
REMARK    3  A    between atoms: O_3  and  C_30 
REMARK    4  A    between atoms: O_4  and  C_33 
REMARK    5  A    between atoms: C_14  and  C_30 
REMARK    6  A    between atoms: C_19  and  C_33 
ROOT
ATOM      1  C   UNL d   1       7.839   1.365  34.777  0.00  0.00    -0.028 A 
ATOM      2  C   UNL d   1       7.382   0.764  35.433  0.00  0.00     0.007 A 
ATOM      3  C   UNL d   1       7.596   0.822  36.451  0.00  0.00    -0.033 A 
ATOM      4  C   UNL d   1       7.624   1.299  33.803  0.00  0.00    -0.013 A 
ATOM      5  C   UNL d   1       8.296   1.514  36.790  0.00  0.00     0.007 A 
ATOM      6  C   UNL d   1       8.542   2.065  35.094  0.00  0.00     0.011 A 
ATOM      7  C   UNL d   1       6.951   0.631  33.485  0.00  0.00    -0.069 A 
ATOM      8  C   UNL d   1       8.772   2.140  36.107  0.00  0.00     0.007 A 
ATOM      9  C   UNL d   1       8.536   1.593  37.846  0.00  0.00     0.010 A 
ATOM     10  C   UNL d   1       6.715   0.550  32.473  0.00  0.00     0.038 A 
ATOM     11  C   UNL d   1       6.709   0.097  35.114  0.00  0.00     0.033 A 
ATOM     12  C   UNL d   1       7.088   0.159  37.143  0.00  0.00     0.044 A 
ATOM     13  C   UNL d   1       8.108   1.932  33.132  0.00  0.00     0.016 A 
ATOM     14  C   UNL d   1       7.188   1.172  31.784  0.00  0.00     0.053 A 
ATOM     15  C   UNL d   1       8.445   2.075  34.416  0.00  0.00     0.016 C 
ATOM     16  C   UNL d   1       7.889   1.868  32.116  0.00  0.00     0.022 A 
ATOM     17  C   UNL d   1       8.040   0.941  38.557  0.00  0.00     0.157 A 
ATOM     18  C   UNL d   1       6.493   0.030  34.140  0.00  0.00    -0.022 A 
ATOM     19  C   UNL d   1       7.311   0.219  38.203  0.00  0.00     0.148 A 
ATOM     20  C   UNL d   1       6.925   0.157  36.125  0.00  0.00     0.016 C 
ATOM     21  C   UNL d   1       8.304   2.032  33.781  0.00  0.00     0.021 C 
ATOM     22  C   UNL d   1       5.982  -0.181  32.151  0.00  0.00    -0.005 A 
ATOM     23  C   UNL d   1       6.959   1.107  30.725  0.00  0.00     0.021 A 
ATOM     24  C   UNL d   1       5.737  -0.266  31.098  0.00  0.00    -0.014 A 
ATOM     25  C   UNL d   1       9.187   2.325  37.647  0.00  0.00     0.020 C 
ATOM     26  C   UNL d   1       6.229   0.382  30.380  0.00  0.00     0.006 A 
ATOM     27  C   UNL d   1       5.534  -0.775  32.821  0.00  0.00     0.011 C 
ATOM     28  C   UNL d   1       5.062  -0.937  30.790  0.00  0.00     0.010 C 
ENDROOT
BRANCH   9  29
ATOM     29  C   UNL d   1       9.051   2.019  38.589  0.00  0.00     0.176 C 
BRANCH  29  30
ATOM     30  O   UNL d   1       9.563   2.861  38.424  0.00  0.00    -0.400 OA
ATOM     31  H   UNL d   1       9.261   3.389  38.304  0.00  0.00     0.209 HD
ENDBRANCH  29  30
ENDBRANCH   9  29
BRANCH  17  32
ATOM     32  O   UNL d   1       8.253   1.004  39.531  0.00  0.00    -0.392 OA
ATOM     33  H   UNL d   1       8.739   1.339  39.722  0.00  0.00     0.210 HD
ENDBRANCH  17  32
BRANCH  19  34
ATOM     34  O   UNL d   1       6.847  -0.386  38.850  0.00  0.00    -0.393 OA
ATOM     35  H   UNL d   1       6.914  -1.001  38.802  0.00  0.00     0.210 HD
ENDBRANCH  19  34
BRANCH  14  36
ATOM     36  C   UNL d   1       7.641   1.770  31.123  0.00  0.00     0.149 C 
ATOM     37  O   UNL d   1       8.505   1.488  30.706  0.00  0.00    -0.649 OA
BRANCH  36  38
ATOM     38  O   UNL d   1       7.231   2.648  30.878  0.00  0.00    -0.776 OA
ATOM     39  H   UNL d   1       7.588   3.152  30.821  0.00  0.00     0.167 HD
ENDBRANCH  36  38
ENDBRANCH  14  36
TORSDOF 6
ENDMDL
