MODEL 1
REMARK VINA RESULT:    -8.703      0.000      0.000
REMARK INTER + INTRA:          -8.719
REMARK INTER:                  -9.755
REMARK INTRA:                   1.036
REMARK UNBOUND:                 1.001
REMARK  3 active torsions:
REMARK  status: ('A' for Active; 'I' for Inactive)
REMARK    1  A    between atoms: O_2  and  C_10 
REMARK    2  A    between atoms: O_4  and  C_13 
REMARK    3  A    between atoms: C_7  and  C_9 
ROOT
ATOM      1  O   UNL d   1      23.703 -32.583  24.546  0.00  0.00    -0.309 OA
ATOM      2  O   UNL d   1      26.317 -31.295  23.836  0.00  0.00    -0.287 OA
ATOM      3  C   UNL d   1      24.657 -31.624  23.466  0.00  0.00     0.081 A 
ATOM      4  C   UNL d   1      23.786 -32.053  23.702  0.00  0.00     0.095 A 
ATOM      5  C   UNL d   1      24.491 -32.684  25.153  0.00  0.00     0.090 A 
ATOM      6  C   UNL d   1      25.445 -31.724  24.073  0.00  0.00     0.190 A 
ATOM      7  C   UNL d   1      24.759 -31.069  22.590  0.00  0.00     0.085 A 
ATOM      8  C   UNL d   1      25.362 -32.255  24.917  0.00  0.00     0.094 A 
ATOM      9  C   UNL d   1      22.956 -31.958  23.080  0.00  0.00     0.075 A 
ATOM     10  C   UNL d   1      23.035 -31.407  22.199  0.00  0.00     0.071 A 
ATOM     11  C   UNL d   1      23.942 -30.960  21.953  0.00  0.00     0.074 A 
ENDROOT
BRANCH   5  12
ATOM     12  C   UNL d   1      24.407 -33.214  25.997  0.00  0.00    -0.002 A 
ATOM     13  C   UNL d   1      24.339 -34.211  25.957  0.00  0.00     0.014 A 
ATOM     14  C   UNL d   1      24.255 -34.741  26.800  0.00  0.00     0.001 A 
ATOM     15  C   UNL d   1      24.241 -34.274  27.685  0.00  0.00     0.000 A 
ATOM     16  C   UNL d   1      24.309 -33.278  27.725  0.00  0.00     0.001 A 
ATOM     17  C   UNL d   1      24.393 -32.747  26.881  0.00  0.00     0.014 A 
ENDBRANCH   5  12
BRANCH   7  18
ATOM     18  O   UNL d   1      25.635 -30.644  22.364  0.00  0.00    -0.360 OA
ATOM     19  H   UNL d   1      25.756 -30.065  22.550  0.00  0.00     0.217 HD
ENDBRANCH   7  18
BRANCH  10  20
ATOM     20  O   UNL d   1      22.244 -31.309  21.595  0.00  0.00    -0.361 OA
ATOM     21  H   UNL d   1      21.869 -30.819  21.653  0.00  0.00     0.217 HD
ENDBRANCH  10  20
TORSDOF 3
ENDMDL
MODEL 2
REMARK VINA RESULT:    -8.605     37.764     38.665
REMARK INTER + INTRA:          -8.611
REMARK INTER:                  -9.733
REMARK INTRA:                   1.123
REMARK UNBOUND:                 1.001
REMARK  3 active torsions:
REMARK  status: ('A' for Active; 'I' for Inactive)
REMARK    1  A    between atoms: O_2  and  C_10 
REMARK    2  A    between atoms: O_4  and  C_13 
REMARK    3  A    between atoms: C_7  and  C_9 
ROOT
ATOM      1  O   UNL d   1       9.256   1.160  33.933  0.00  0.00    -0.309 OA
ATOM      2  O   UNL d   1       6.624   2.589  33.762  0.00  0.00    -0.287 OA
ATOM      3  C   UNL d   1       7.933   1.964  34.709  0.00  0.00     0.081 A 
ATOM      4  C   UNL d   1       8.810   1.488  34.765  0.00  0.00     0.095 A 
ATOM      5  C   UNL d   1       8.824   1.308  33.043  0.00  0.00     0.090 A 
ATOM      6  C   UNL d   1       7.501   2.113  33.819  0.00  0.00     0.190 A 
ATOM      7  C   UNL d   1       7.457   2.312  35.567  0.00  0.00     0.085 A 
ATOM      8  C   UNL d   1       7.947   1.785  32.986  0.00  0.00     0.094 A 
ATOM      9  C   UNL d   1       9.272   1.325  35.685  0.00  0.00     0.075 A 
ATOM     10  C   UNL d   1       8.814   1.664  36.557  0.00  0.00     0.071 A 
ATOM     11  C   UNL d   1       7.900   2.161  36.498  0.00  0.00     0.074 A 
ENDROOT
BRANCH   5  12
ATOM     12  C   UNL d   1       9.270   0.980  32.210  0.00  0.00    -0.002 A 
ATOM     13  C   UNL d   1      10.198   1.280  31.988  0.00  0.00     0.014 A 
ATOM     14  C   UNL d   1      10.644   0.952  31.155  0.00  0.00     0.001 A 
ATOM     15  C   UNL d   1      10.161   0.324  30.544  0.00  0.00     0.000 A 
ATOM     16  C   UNL d   1       9.233   0.024  30.766  0.00  0.00     0.001 A 
ATOM     17  C   UNL d   1       8.788   0.352  31.599  0.00  0.00     0.014 A 
ENDBRANCH   5  12
BRANCH   7  18
ATOM     18  O   UNL d   1       6.580   2.787  35.498  0.00  0.00    -0.360 OA
ATOM     19  H   UNL d   1       6.065   2.521  35.718  0.00  0.00     0.217 HD
ENDBRANCH   7  18
BRANCH  10  20
ATOM     20  O   UNL d   1       9.249   1.514  37.445  0.00  0.00    -0.361 OA
ATOM     21  H   UNL d   1       9.645   1.043  37.520  0.00  0.00     0.217 HD
ENDBRANCH  10  20
TORSDOF 3
ENDMDL
MODEL 3
REMARK VINA RESULT:    -8.558      0.842      2.149
REMARK INTER + INTRA:          -8.558
REMARK INTER:                  -9.562
REMARK INTRA:                   1.004
REMARK UNBOUND:                 1.001
REMARK  3 active torsions:
REMARK  status: ('A' for Active; 'I' for Inactive)
REMARK    1  A    between atoms: O_2  and  C_10 
REMARK    2  A    between atoms: O_4  and  C_13 
REMARK    3  A    between atoms: C_7  and  C_9 
ROOT
ATOM      1  O   UNL d   1      25.041 -32.049  24.699  0.00  0.00    -0.309 OA
ATOM      2  O   UNL d   1      22.498 -32.066  23.106  0.00  0.00    -0.287 OA
ATOM      3  C   UNL d   1      24.121 -31.505  23.335  0.00  0.00     0.081 A 
ATOM      4  C   UNL d   1      24.968 -31.500  23.866  0.00  0.00     0.095 A 
ATOM      5  C   UNL d   1      24.265 -32.605  25.000  0.00  0.00     0.090 A 
ATOM      6  C   UNL d   1      23.346 -32.060  23.637  0.00  0.00     0.190 A 
ATOM      7  C   UNL d   1      24.031 -30.938  22.467  0.00  0.00     0.085 A 
ATOM      8  C   UNL d   1      23.418 -32.610  24.469  0.00  0.00     0.094 A 
ATOM      9  C   UNL d   1      25.785 -30.927  23.565  0.00  0.00     0.075 A 
ATOM     10  C   UNL d   1      25.717 -30.352  22.699  0.00  0.00     0.071 A 
ATOM     11  C   UNL d   1      24.835 -30.357  22.147  0.00  0.00     0.074 A 
ENDROOT
BRANCH   5  12
ATOM     12  C   UNL d   1      24.338 -33.154  25.832  0.00  0.00    -0.002 A 
ATOM     13  C   UNL d   1      24.174 -32.734  26.725  0.00  0.00     0.014 A 
ATOM     14  C   UNL d   1      24.246 -33.284  27.557  0.00  0.00     0.001 A 
ATOM     15  C   UNL d   1      24.482 -34.253  27.497  0.00  0.00     0.000 A 
ATOM     16  C   UNL d   1      24.646 -34.674  26.604  0.00  0.00     0.001 A 
ATOM     17  C   UNL d   1      24.573 -34.124  25.772  0.00  0.00     0.014 A 
ENDBRANCH   5  12
BRANCH   7  18
ATOM     18  O   UNL d   1      23.179 -30.951  21.944  0.00  0.00    -0.360 OA
ATOM     19  H   UNL d   1      23.052 -31.429  21.571  0.00  0.00     0.217 HD
ENDBRANCH   7  18
BRANCH  10  20
ATOM     20  O   UNL d   1      26.495 -29.798  22.401  0.00  0.00    -0.361 OA
ATOM     21  H   UNL d   1      26.706 -29.848  21.821  0.00  0.00     0.217 HD
ENDBRANCH  10  20
TORSDOF 3
ENDMDL
MODEL 4
REMARK VINA RESULT:    -8.551     37.528     38.358
REMARK INTER + INTRA:          -8.550
REMARK INTER:                  -9.553
REMARK INTRA:                   1.002
REMARK UNBOUND:                 1.001
REMARK  3 active torsions:
REMARK  status: ('A' for Active; 'I' for Inactive)
REMARK    1  A    between atoms: O_2  and  C_10 
REMARK    2  A    between atoms: O_4  and  C_13 
REMARK    3  A    between atoms: C_7  and  C_9 
ROOT
ATOM      1  O   UNL d   1       8.469   1.807  33.264  0.00  0.00    -0.309 OA
ATOM      2  O   UNL d   1       7.239  -0.753  32.297  0.00  0.00    -0.287 OA
ATOM      3  C   UNL d   1       8.461   0.468  32.165  0.00  0.00     0.081 A 
ATOM      4  C   UNL d   1       8.871   1.321  32.488  0.00  0.00     0.095 A 
ATOM      5  C   UNL d   1       7.657   1.439  33.718  0.00  0.00     0.090 A 
ATOM      6  C   UNL d   1       7.649   0.100  32.619  0.00  0.00     0.190 A 
ATOM      7  C   UNL d   1       8.868  -0.049  31.358  0.00  0.00     0.085 A 
ATOM      8  C   UNL d   1       7.247   0.586  33.396  0.00  0.00     0.094 A 
ATOM      9  C   UNL d   1       9.716   1.716  32.025  0.00  0.00     0.075 A 
ATOM     10  C   UNL d   1      10.140   1.216  31.216  0.00  0.00     0.071 A 
ATOM     11  C   UNL d   1       9.713   0.328  30.881  0.00  0.00     0.074 A 
ENDROOT
BRANCH   5  12
ATOM     12  C   UNL d   1       7.255   1.925  34.494  0.00  0.00    -0.002 A 
ATOM     13  C   UNL d   1       6.493   2.556  34.349  0.00  0.00     0.014 A 
ATOM     14  C   UNL d   1       6.091   3.041  35.125  0.00  0.00     0.001 A 
ATOM     15  C   UNL d   1       6.452   2.897  36.047  0.00  0.00     0.000 A 
ATOM     16  C   UNL d   1       7.215   2.266  36.192  0.00  0.00     0.001 A 
ATOM     17  C   UNL d   1       7.616   1.781  35.416  0.00  0.00     0.014 A 
ENDBRANCH   5  12
BRANCH   7  18
ATOM     18  O   UNL d   1       8.450  -0.901  31.044  0.00  0.00    -0.360 OA
ATOM     19  H   UNL d   1       8.003  -1.169  31.380  0.00  0.00     0.217 HD
ENDBRANCH   7  18
BRANCH  10  20
ATOM     20  O   UNL d   1      10.952   1.587  30.765  0.00  0.00    -0.361 OA
ATOM     21  H   UNL d   1      11.474   1.674  31.089  0.00  0.00     0.217 HD
ENDBRANCH  10  20
TORSDOF 3
ENDMDL
MODEL 5
REMARK VINA RESULT:    -8.538     39.213     40.064
REMARK INTER + INTRA:          -8.536
REMARK INTER:                  -9.554
REMARK INTRA:                   1.018
REMARK UNBOUND:                 1.001
REMARK  3 active torsions:
REMARK  status: ('A' for Active; 'I' for Inactive)
REMARK    1  A    between atoms: O_2  and  C_10 
REMARK    2  A    between atoms: O_4  and  C_13 
REMARK    3  A    between atoms: C_7  and  C_9 
ROOT
ATOM      1  O   UNL d   1       6.907   2.566  34.206  0.00  0.00    -0.309 OA
ATOM      2  O   UNL d   1       7.990   1.029  36.544  0.00  0.00    -0.287 OA
ATOM      3  C   UNL d   1       6.867   2.177  35.893  0.00  0.00     0.081 A 
ATOM      4  C   UNL d   1       6.506   2.689  35.114  0.00  0.00     0.095 A 
ATOM      5  C   UNL d   1       7.669   1.931  34.077  0.00  0.00     0.090 A 
ATOM      6  C   UNL d   1       7.629   1.542  35.765  0.00  0.00     0.190 A 
ATOM      7  C   UNL d   1       6.460   2.294  36.844  0.00  0.00     0.085 A 
ATOM      8  C   UNL d   1       8.030   1.419  34.857  0.00  0.00     0.094 A 
ATOM      9  C   UNL d   1       5.713   3.354  35.232  0.00  0.00     0.075 A 
ATOM     10  C   UNL d   1       5.291   3.488  36.175  0.00  0.00     0.071 A 
ATOM     11  C   UNL d   1       5.667   2.954  36.986  0.00  0.00     0.074 A 
ENDROOT
BRANCH   5  12
ATOM     12  C   UNL d   1       8.069   1.808  33.169  0.00  0.00    -0.002 A 
ATOM     13  C   UNL d   1       8.941   2.243  32.944  0.00  0.00     0.014 A 
ATOM     14  C   UNL d   1       9.342   2.120  32.037  0.00  0.00     0.001 A 
ATOM     15  C   UNL d   1       8.871   1.562  31.354  0.00  0.00     0.000 A 
ATOM     16  C   UNL d   1       7.999   1.127  31.579  0.00  0.00     0.001 A 
ATOM     17  C   UNL d   1       7.598   1.250  32.486  0.00  0.00     0.014 A 
ENDBRANCH   5  12
BRANCH   7  18
ATOM     18  O   UNL d   1       6.829   1.777  37.617  0.00  0.00    -0.360 OA
ATOM     19  H   UNL d   1       6.892   1.162  37.575  0.00  0.00     0.217 HD
ENDBRANCH   7  18
BRANCH  10  20
ATOM     20  O   UNL d   1       4.529   4.124  36.299  0.00  0.00    -0.361 OA
ATOM     21  H   UNL d   1       4.218   4.333  35.806  0.00  0.00     0.217 HD
ENDBRANCH  10  20
TORSDOF 3
ENDMDL
