MODEL 1
REMARK VINA RESULT:    -6.222      0.000      0.000
REMARK INTER + INTRA:          -5.804
REMARK INTER:                  -7.526
REMARK INTRA:                   1.722
REMARK UNBOUND:                 1.691
REMARK  4 active torsions:
REMARK  status: ('A' for Active; 'I' for Inactive)
REMARK    1  A    between atoms: O_1  and  C_8 
REMARK    2  A    between atoms: O_2  and  C_7 
REMARK    3  A    between atoms: C_3  and  C_4 
REMARK    4  A    between atoms: C_4  and  C_10 
ROOT
ATOM      1  C   UNL d   1      28.043  -7.660  35.307  0.00  0.00    -0.052 A 
ATOM      2  C   UNL d   1      27.570  -8.456  34.928  0.00  0.00     0.046 A 
ATOM      3  C   UNL d   1      28.994  -7.479  35.058  0.00  0.00     0.010 A 
ATOM      4  C   UNL d   1      28.048  -9.070  34.301  0.00  0.00     0.099 A 
ATOM      5  C   UNL d   1      28.999  -8.889  34.052  0.00  0.00     0.101 A 
ATOM      6  C   UNL d   1      29.472  -8.093  34.430  0.00  0.00     0.040 A 
ENDROOT
BRANCH   1   7
ATOM      7  C   UNL d   1      27.564  -7.046  35.934  0.00  0.00     0.065 C 
BRANCH   7   8
ATOM      8  C   UNL d   1      27.096  -6.236  35.581  0.00  0.00    -0.032 C 
ATOM      9  C   UNL d   1      26.419  -5.764  36.146  0.00  0.00     0.007 C 
ENDBRANCH   7   8
ENDBRANCH   1   7
BRANCH   4  10
ATOM     10  O   UNL d   1      27.575  -9.866  33.923  0.00  0.00    -0.358 OA
ATOM     11  H   UNL d   1      27.895 -10.300  33.616  0.00  0.00     0.217 HD
ENDBRANCH   4  10
BRANCH   5  12
ATOM     12  O   UNL d   1      29.478  -9.504  33.424  0.00  0.00    -0.353 OA
ATOM     13  C   UNL d   1      30.406  -9.286  33.122  0.00  0.00     0.210 C 
ENDBRANCH   5  12
TORSDOF 4
ENDMDL
MODEL 2
REMARK VINA RESULT:    -5.785     25.149     26.443
REMARK INTER + INTRA:          -5.277
REMARK INTER:                  -6.980
REMARK INTRA:                   1.702
REMARK UNBOUND:                 1.691
REMARK  4 active torsions:
REMARK  status: ('A' for Active; 'I' for Inactive)
REMARK    1  A    between atoms: O_1  and  C_8 
REMARK    2  A    between atoms: O_2  and  C_7 
REMARK    3  A    between atoms: C_3  and  C_4 
REMARK    4  A    between atoms: C_4  and  C_10 
ROOT
ATOM      1  C   UNL d   1      25.443 -31.333  22.946  0.00  0.00    -0.052 A 
ATOM      2  C   UNL d   1      25.102 -31.557  23.859  0.00  0.00     0.046 A 
ATOM      3  C   UNL d   1      24.832 -31.392  22.156  0.00  0.00     0.010 A 
ATOM      4  C   UNL d   1      24.151 -31.840  23.982  0.00  0.00     0.099 A 
ATOM      5  C   UNL d   1      23.541 -31.899  23.192  0.00  0.00     0.101 A 
ATOM      6  C   UNL d   1      23.881 -31.675  22.279  0.00  0.00     0.040 A 
ENDROOT
BRANCH   1   7
ATOM      7  C   UNL d   1      26.394 -31.049  22.822  0.00  0.00     0.065 C 
BRANCH   7   8
ATOM      8  C   UNL d   1      26.631 -30.078  22.827  0.00  0.00    -0.032 C 
ATOM      9  C   UNL d   1      27.557 -29.788  22.585  0.00  0.00     0.007 C 
ENDBRANCH   7   8
ENDBRANCH   1   7
BRANCH   4  10
ATOM     10  O   UNL d   1      23.810 -32.064  24.895  0.00  0.00    -0.358 OA
ATOM     11  H   UNL d   1      23.333 -32.455  24.961  0.00  0.00     0.217 HD
ENDBRANCH   4  10
BRANCH   5  12
ATOM     12  O   UNL d   1      22.590 -32.182  23.315  0.00  0.00    -0.353 OA
ATOM     13  C   UNL d   1      21.949 -32.130  22.549  0.00  0.00     0.210 C 
ENDBRANCH   5  12
TORSDOF 4
ENDMDL
MODEL 3
REMARK VINA RESULT:    -5.669     20.792     22.736
REMARK INTER + INTRA:          -5.138
REMARK INTER:                  -6.955
REMARK INTRA:                   1.817
REMARK UNBOUND:                 1.691
REMARK  4 active torsions:
REMARK  status: ('A' for Active; 'I' for Inactive)
REMARK    1  A    between atoms: O_1  and  C_8 
REMARK    2  A    between atoms: O_2  and  C_7 
REMARK    3  A    between atoms: C_3  and  C_4 
REMARK    4  A    between atoms: C_4  and  C_10 
ROOT
ATOM      1  C   UNL d   1       9.005   1.813  31.972  0.00  0.00    -0.052 A 
ATOM      2  C   UNL d   1       8.127   1.901  31.500  0.00  0.00     0.046 A 
ATOM      3  C   UNL d   1       9.048   1.905  32.967  0.00  0.00     0.010 A 
ATOM      4  C   UNL d   1       7.294   2.080  32.023  0.00  0.00     0.099 A 
ATOM      5  C   UNL d   1       7.337   2.171  33.017  0.00  0.00     0.101 A 
ATOM      6  C   UNL d   1       8.214   2.084  33.490  0.00  0.00     0.040 A 
ENDROOT
BRANCH   1   7
ATOM      7  C   UNL d   1       9.838   1.634  31.450  0.00  0.00     0.065 C 
BRANCH   7   8
ATOM      8  C   UNL d   1      10.298   0.750  31.530  0.00  0.00    -0.032 C 
ATOM      9  C   UNL d   1      10.785   0.367  30.745  0.00  0.00     0.007 C 
ENDBRANCH   7   8
ENDBRANCH   1   7
BRANCH   4  10
ATOM     10  O   UNL d   1       6.417   2.167  31.550  0.00  0.00    -0.358 OA
ATOM     11  H   UNL d   1       6.086   1.661  31.414  0.00  0.00     0.217 HD
ENDBRANCH   4  10
BRANCH   5  12
ATOM     12  O   UNL d   1       6.504   2.350  33.540  0.00  0.00    -0.353 OA
ATOM     13  C   UNL d   1       6.547   2.442  34.535  0.00  0.00     0.210 C 
ENDBRANCH   5  12
TORSDOF 4
ENDMDL
MODEL 4
REMARK VINA RESULT:    -5.561     41.882     42.778
REMARK INTER + INTRA:          -5.008
REMARK INTER:                  -6.716
REMARK INTRA:                   1.708
REMARK UNBOUND:                 1.691
REMARK  4 active torsions:
REMARK  status: ('A' for Active; 'I' for Inactive)
REMARK    1  A    between atoms: O_1  and  C_8 
REMARK    2  A    between atoms: O_2  and  C_7 
REMARK    3  A    between atoms: C_3  and  C_4 
REMARK    4  A    between atoms: C_4  and  C_10 
ROOT
ATOM      1  C   UNL d   1      13.281 -37.313   6.960  0.00  0.00    -0.052 A 
ATOM      2  C   UNL d   1      13.546 -38.198   7.341  0.00  0.00     0.046 A 
ATOM      3  C   UNL d   1      12.701 -36.694   7.491  0.00  0.00     0.010 A 
ATOM      4  C   UNL d   1      13.233 -38.466   8.252  0.00  0.00     0.099 A 
ATOM      5  C   UNL d   1      12.653 -37.847   8.782  0.00  0.00     0.101 A 
ATOM      6  C   UNL d   1      12.387 -36.961   8.402  0.00  0.00     0.040 A 
ENDROOT
BRANCH   1   7
ATOM      7  C   UNL d   1      13.595 -37.046   6.049  0.00  0.00     0.065 C 
BRANCH   7   8
ATOM      8  C   UNL d   1      14.354 -36.402   5.951  0.00  0.00    -0.032 C 
ATOM      9  C   UNL d   1      14.702 -36.175   5.041  0.00  0.00     0.007 C 
ENDBRANCH   7   8
ENDBRANCH   1   7
BRANCH   4  10
ATOM     10  O   UNL d   1      13.498 -39.351   8.633  0.00  0.00    -0.358 OA
ATOM     11  H   UNL d   1      14.061 -39.583   8.515  0.00  0.00     0.217 HD
ENDBRANCH   4  10
BRANCH   5  12
ATOM     12  O   UNL d   1      12.339 -38.114   9.693  0.00  0.00    -0.353 OA
ATOM     13  C   UNL d   1      11.657 -37.560  10.170  0.00  0.00     0.210 C 
ENDBRANCH   5  12
TORSDOF 4
ENDMDL
MODEL 5
REMARK VINA RESULT:    -5.561     20.885     22.905
REMARK INTER + INTRA:          -5.007
REMARK INTER:                  -6.720
REMARK INTRA:                   1.713
REMARK UNBOUND:                 1.691
REMARK  4 active torsions:
REMARK  status: ('A' for Active; 'I' for Inactive)
REMARK    1  A    between atoms: O_1  and  C_8 
REMARK    2  A    between atoms: O_2  and  C_7 
REMARK    3  A    between atoms: C_3  and  C_4 
REMARK    4  A    between atoms: C_4  and  C_10 
ROOT
ATOM      1  C   UNL d   1       7.381   1.964  33.448  0.00  0.00    -0.052 A 
ATOM      2  C   UNL d   1       7.138   2.207  32.509  0.00  0.00     0.046 A 
ATOM      3  C   UNL d   1       8.319   1.696  33.668  0.00  0.00     0.010 A 
ATOM      4  C   UNL d   1       7.832   2.183  31.791  0.00  0.00     0.099 A 
ATOM      5  C   UNL d   1       8.770   1.916  32.011  0.00  0.00     0.101 A 
ATOM      6  C   UNL d   1       9.014   1.673  32.950  0.00  0.00     0.040 A 
ENDROOT
BRANCH   1   7
ATOM      7  C   UNL d   1       6.686   1.987  34.167  0.00  0.00     0.065 C 
BRANCH   7   8
ATOM      8  C   UNL d   1       6.579   2.805  34.732  0.00  0.00    -0.032 C 
ATOM      9  C   UNL d   1       5.907   2.817  35.473  0.00  0.00     0.007 C 
ENDBRANCH   7   8
ENDBRANCH   1   7
BRANCH   4  10
ATOM     10  O   UNL d   1       7.589   2.426  30.852  0.00  0.00    -0.358 OA
ATOM     11  H   UNL d   1       7.894   2.171  30.376  0.00  0.00     0.217 HD
ENDBRANCH   4  10
BRANCH   5  12
ATOM     12  O   UNL d   1       9.465   1.892  31.292  0.00  0.00    -0.353 OA
ATOM     13  C   UNL d   1      10.296   1.350  31.417  0.00  0.00     0.210 C 
ENDBRANCH   5  12
TORSDOF 4
ENDMDL
