MODEL 1
REMARK VINA RESULT:   -11.188      0.000      0.000
REMARK INTER + INTRA:          -7.296
REMARK INTER:                 -17.411
REMARK INTRA:                  10.116
REMARK UNBOUND:                10.434
REMARK  14 active torsions:
REMARK  status: ('A' for Active; 'I' for Inactive)
REMARK    1  A    between atoms: C_15  and  O_1 
REMARK    2  A    between atoms: C_18  and  O_1 
REMARK    3  A    between atoms: C_16  and  O_4 
REMARK    4  A    between atoms: C_20  and  O_5 
REMARK    5  A    between atoms: O_5  and  C_27 
REMARK    6  A    between atoms: C_17  and  O_6 
REMARK    7  A    between atoms: C_19  and  O_7 
REMARK    8  A    between atoms: C_22  and  O_8 
REMARK    9  A    between atoms: C_23  and  O_9 
REMARK   10  A    between atoms: O_10  and  C_25 
REMARK   11  A    between atoms: O_12  and  C_31 
REMARK   12  A    between atoms: O_14  and  C_41 
REMARK   13  A    between atoms: C_21  and  C_25 
REMARK   14  A    between atoms: C_34  and  C_36 
ROOT
ATOM      1  O   UNL d   1       9.751 -36.737   9.886  0.00  0.00    -0.348 OA
ATOM      2  C   UNL d   1       9.696 -35.966  11.436  0.00  0.00     0.211 A 
ATOM      3  C   UNL d   1       8.706 -35.858  11.348  0.00  0.00     0.183 A 
ATOM      4  C   UNL d   1       8.238 -36.190  10.528  0.00  0.00     0.180 A 
ATOM      5  C   UNL d   1      10.218 -36.405  10.705  0.00  0.00     0.298 A 
ATOM      6  C   UNL d   1       8.760 -36.629   9.798  0.00  0.00     0.179 A 
ENDROOT
BRANCH   5   7
ATOM      7  O   UNL d   1      11.209 -36.513  10.794  0.00  0.00    -0.318 OA
BRANCH   7   8
ATOM      8  C   UNL d   1      11.742 -36.876  10.030  0.00  0.00     0.077 A 
ATOM      9  C   UNL d   1      12.007 -36.258   9.234  0.00  0.00     0.075 A 
ATOM     10  C   UNL d   1      12.563 -36.647   8.444  0.00  0.00     0.095 A 
ATOM     11  O   UNL d   1      12.813 -36.048   7.683  0.00  0.00    -0.309 OA
ATOM     12  C   UNL d   1      12.847 -37.606   8.439  0.00  0.00     0.081 A 
ATOM     13  C   UNL d   1      13.346 -36.407   6.918  0.00  0.00     0.090 A 
ATOM     14  C   UNL d   1      13.630 -37.366   6.913  0.00  0.00     0.094 A 
ATOM     15  C   UNL d   1      13.380 -37.966   7.673  0.00  0.00     0.190 A 
ATOM     16  O   UNL d   1      13.664 -38.924   7.668  0.00  0.00    -0.287 OA
ATOM     17  C   UNL d   1      12.594 -38.242   9.224  0.00  0.00     0.085 A 
ATOM     18  C   UNL d   1      12.038 -37.875  10.024  0.00  0.00     0.074 A 
BRANCH  13  19
ATOM     19  C   UNL d   1      13.597 -35.808   6.157  0.00  0.00    -0.002 A 
ATOM     20  C   UNL d   1      14.526 -35.828   5.789  0.00  0.00     0.017 A 
ATOM     21  C   UNL d   1      14.775 -35.229   5.029  0.00  0.00     0.037 A 
ATOM     22  C   UNL d   1      14.096 -34.610   4.636  0.00  0.00     0.065 A 
ATOM     23  C   UNL d   1      13.166 -34.590   5.004  0.00  0.00     0.037 A 
ATOM     24  C   UNL d   1      12.916 -35.189   5.764  0.00  0.00     0.017 A 
BRANCH  22  25
ATOM     25  O   UNL d   1      14.346 -34.010   3.875  0.00  0.00    -0.361 OA
ATOM     26  H   UNL d   1      14.247 -34.194   3.291  0.00  0.00     0.217 HD
ENDBRANCH  22  25
ENDBRANCH  13  19
BRANCH  17  27
ATOM     27  O   UNL d   1      12.883 -39.200   9.208  0.00  0.00    -0.360 OA
ATOM     28  H   UNL d   1      12.663 -39.583   8.772  0.00  0.00     0.217 HD
ENDBRANCH  17  27
ENDBRANCH   7   8
ENDBRANCH   5   7
BRANCH   2  29
ATOM     29  O   UNL d   1      10.164 -35.635  12.255  0.00  0.00    -0.346 OA
BRANCH  29  30
ATOM     30  C   UNL d   1      10.169 -36.190  13.087  0.00  0.00     0.292 A 
ATOM     31  O   UNL d   1       9.990 -37.172  13.034  0.00  0.00    -0.351 OA
ATOM     32  C   UNL d   1       9.996 -37.727  13.865  0.00  0.00     0.152 A 
ATOM     33  C   UNL d   1      10.181 -37.300  14.751  0.00  0.00     0.178 A 
ATOM     34  C   UNL d   1       9.816 -38.710  13.812  0.00  0.00     0.042 C 
ATOM     35  C   UNL d   1      10.360 -36.318  14.804  0.00  0.00     0.183 A 
ATOM     36  C   UNL d   1      10.354 -35.763  13.972  0.00  0.00     0.204 A 
BRANCH  33  37
ATOM     37  O   UNL d   1      10.186 -37.855  15.582  0.00  0.00    -0.390 OA
ATOM     38  H   UNL d   1      10.543 -38.361  15.615  0.00  0.00     0.210 HD
ENDBRANCH  33  37
BRANCH  35  39
ATOM     39  O   UNL d   1      10.545 -35.891  15.689  0.00  0.00    -0.390 OA
ATOM     40  H   UNL d   1      10.975 -36.131  16.065  0.00  0.00     0.210 HD
ENDBRANCH  35  39
BRANCH  36  41
ATOM     41  O   UNL d   1      10.534 -34.780  14.026  0.00  0.00    -0.388 OA
ATOM     42  H   UNL d   1      10.950 -34.563  14.430  0.00  0.00     0.210 HD
ENDBRANCH  36  41
ENDBRANCH  29  30
ENDBRANCH   2  29
BRANCH   6  43
ATOM     43  C   UNL d   1       8.293 -36.961   8.978  0.00  0.00     0.198 C 
BRANCH  43  44
ATOM     44  O   UNL d   1       8.533 -36.590   8.081  0.00  0.00    -0.398 OA
ATOM     45  H   UNL d   1       8.614 -35.979   8.010  0.00  0.00     0.209 HD
ENDBRANCH  43  44
ENDBRANCH   6  43
BRANCH   3  46
ATOM     46  O   UNL d   1       8.183 -35.419  12.078  0.00  0.00    -0.390 OA
ATOM     47  H   UNL d   1       8.420 -35.385  12.651  0.00  0.00     0.210 HD
ENDBRANCH   3  46
BRANCH   4  48
ATOM     48  O   UNL d   1       7.248 -36.082  10.440  0.00  0.00    -0.390 OA
ATOM     49  H   UNL d   1       7.014 -35.720   9.994  0.00  0.00     0.210 HD
ENDBRANCH   4  48
TORSDOF 14
ENDMDL
MODEL 2
REMARK VINA RESULT:   -10.580     19.744     21.885
REMARK INTER + INTRA:          -6.332
REMARK INTER:                 -16.186
REMARK INTRA:                   9.854
REMARK UNBOUND:                10.434
REMARK  14 active torsions:
REMARK  status: ('A' for Active; 'I' for Inactive)
REMARK    1  A    between atoms: C_15  and  O_1 
REMARK    2  A    between atoms: C_18  and  O_1 
REMARK    3  A    between atoms: C_16  and  O_4 
REMARK    4  A    between atoms: C_20  and  O_5 
REMARK    5  A    between atoms: O_5  and  C_27 
REMARK    6  A    between atoms: C_17  and  O_6 
REMARK    7  A    between atoms: C_19  and  O_7 
REMARK    8  A    between atoms: C_22  and  O_8 
REMARK    9  A    between atoms: C_23  and  O_9 
REMARK   10  A    between atoms: O_10  and  C_25 
REMARK   11  A    between atoms: O_12  and  C_31 
REMARK   12  A    between atoms: O_14  and  C_41 
REMARK   13  A    between atoms: C_21  and  C_25 
REMARK   14  A    between atoms: C_34  and  C_36 
ROOT
ATOM      1  O   UNL d   1      25.398 -31.265  23.973  0.00  0.00    -0.348 OA
ATOM      2  C   UNL d   1      24.706 -32.744  24.549  0.00  0.00     0.211 A 
ATOM      3  C   UNL d   1      23.806 -32.449  24.228  0.00  0.00     0.183 A 
ATOM      4  C   UNL d   1      23.703 -31.561  23.779  0.00  0.00     0.180 A 
ATOM      5  C   UNL d   1      25.502 -32.152  24.422  0.00  0.00     0.298 A 
ATOM      6  C   UNL d   1      24.498 -30.969  23.651  0.00  0.00     0.179 A 
ENDROOT
BRANCH   5   7
ATOM      7  O   UNL d   1      26.401 -32.448  24.743  0.00  0.00    -0.318 OA
BRANCH   7   8
ATOM      8  C   UNL d   1      27.208 -31.886  24.558  0.00  0.00     0.077 A 
ATOM      9  C   UNL d   1      27.731 -31.997  23.663  0.00  0.00     0.075 A 
ATOM     10  C   UNL d   1      28.569 -31.407  23.481  0.00  0.00     0.095 A 
ATOM     11  O   UNL d   1      29.065 -31.518  22.620  0.00  0.00    -0.309 OA
ATOM     12  C   UNL d   1      28.880 -30.735  24.154  0.00  0.00     0.081 A 
ATOM     13  C   UNL d   1      29.872 -30.958  22.432  0.00  0.00     0.090 A 
ATOM     14  C   UNL d   1      30.182 -30.287  23.104  0.00  0.00     0.094 A 
ATOM     15  C   UNL d   1      29.687 -30.175  23.965  0.00  0.00     0.190 A 
ATOM     16  O   UNL d   1      29.997 -29.503  24.638  0.00  0.00    -0.287 OA
ATOM     17  C   UNL d   1      28.373 -30.607  25.055  0.00  0.00     0.085 A 
ATOM     18  C   UNL d   1      27.532 -31.186  25.258  0.00  0.00     0.074 A 
BRANCH  13  19
ATOM     19  C   UNL d   1      30.369 -31.070  21.571  0.00  0.00    -0.002 A 
ATOM     20  C   UNL d   1      31.198 -31.627  21.540  0.00  0.00     0.017 A 
ATOM     21  C   UNL d   1      31.694 -31.738  20.679  0.00  0.00     0.037 A 
ATOM     22  C   UNL d   1      31.361 -31.293  19.849  0.00  0.00     0.065 A 
ATOM     23  C   UNL d   1      30.531 -30.735  19.879  0.00  0.00     0.037 A 
ATOM     24  C   UNL d   1      30.035 -30.624  20.740  0.00  0.00     0.017 A 
BRANCH  22  25
ATOM     25  O   UNL d   1      31.857 -31.404  18.988  0.00  0.00    -0.361 OA
ATOM     26  H   UNL d   1      32.177 -30.929  18.751  0.00  0.00     0.217 HD
ENDBRANCH  22  25
ENDBRANCH  13  19
BRANCH  17  27
ATOM     27  O   UNL d   1      28.693 -29.932  25.720  0.00  0.00    -0.360 OA
ATOM     28  H   UNL d   1      29.173 -30.065  26.090  0.00  0.00     0.217 HD
ENDBRANCH  17  27
ENDBRANCH   7   8
ENDBRANCH   5   7
BRANCH   2  29
ATOM     29  O   UNL d   1      24.810 -33.632  24.998  0.00  0.00    -0.346 OA
BRANCH  29  30
ATOM     30  C   UNL d   1      24.820 -33.689  25.996  0.00  0.00     0.292 A 
ATOM     31  O   UNL d   1      24.551 -32.898  26.545  0.00  0.00    -0.351 OA
ATOM     32  C   UNL d   1      24.562 -32.955  27.544  0.00  0.00     0.152 A 
ATOM     33  C   UNL d   1      24.841 -33.803  27.993  0.00  0.00     0.178 A 
ATOM     34  C   UNL d   1      24.292 -32.164  28.093  0.00  0.00     0.042 C 
ATOM     35  C   UNL d   1      25.111 -34.594  27.444  0.00  0.00     0.183 A 
ATOM     36  C   UNL d   1      25.100 -34.537  26.446  0.00  0.00     0.204 A 
BRANCH  33  37
ATOM     37  O   UNL d   1      24.852 -33.860  28.991  0.00  0.00    -0.390 OA
ATOM     38  H   UNL d   1      25.225 -34.267  29.275  0.00  0.00     0.210 HD
ENDBRANCH  33  37
BRANCH  35  39
ATOM     39  O   UNL d   1      25.390 -35.443  27.893  0.00  0.00    -0.390 OA
ATOM     40  H   UNL d   1      25.993 -35.577  27.955  0.00  0.00     0.210 HD
ENDBRANCH  35  39
BRANCH  36  41
ATOM     41  O   UNL d   1      25.369 -35.329  25.897  0.00  0.00    -0.388 OA
ATOM     42  H   UNL d   1      24.988 -35.546  25.458  0.00  0.00     0.210 HD
ENDBRANCH  36  41
ENDBRANCH  29  30
ENDBRANCH   2  29
BRANCH   6  43
ATOM     43  C   UNL d   1      24.395 -30.082  23.203  0.00  0.00     0.198 C 
BRANCH  43  44
ATOM     44  O   UNL d   1      25.088 -29.765  22.555  0.00  0.00    -0.398 OA
ATOM     45  H   UNL d   1      24.922 -29.596  21.981  0.00  0.00     0.209 HD
ENDBRANCH  43  44
ENDBRANCH   6  43
BRANCH   3  46
ATOM     46  O   UNL d   1      23.010 -33.040  24.356  0.00  0.00    -0.390 OA
ATOM     47  H   UNL d   1      22.461 -32.794  24.503  0.00  0.00     0.210 HD
ENDBRANCH   3  46
BRANCH   4  48
ATOM     48  O   UNL d   1      22.803 -31.265  23.458  0.00  0.00    -0.390 OA
ATOM     49  H   UNL d   1      22.651 -31.328  22.860  0.00  0.00     0.210 HD
ENDBRANCH   4  48
TORSDOF 14
ENDMDL
MODEL 3
REMARK VINA RESULT:   -10.471     41.501     44.292
REMARK INTER + INTRA:          -6.159
REMARK INTER:                 -16.250
REMARK INTRA:                  10.092
REMARK UNBOUND:                10.434
REMARK  14 active torsions:
REMARK  status: ('A' for Active; 'I' for Inactive)
REMARK    1  A    between atoms: C_15  and  O_1 
REMARK    2  A    between atoms: C_18  and  O_1 
REMARK    3  A    between atoms: C_16  and  O_4 
REMARK    4  A    between atoms: C_20  and  O_5 
REMARK    5  A    between atoms: O_5  and  C_27 
REMARK    6  A    between atoms: C_17  and  O_6 
REMARK    7  A    between atoms: C_19  and  O_7 
REMARK    8  A    between atoms: C_22  and  O_8 
REMARK    9  A    between atoms: C_23  and  O_9 
REMARK   10  A    between atoms: O_10  and  C_25 
REMARK   11  A    between atoms: O_12  and  C_31 
REMARK   12  A    between atoms: O_14  and  C_41 
REMARK   13  A    between atoms: C_21  and  C_25 
REMARK   14  A    between atoms: C_34  and  C_36 
ROOT
ATOM      1  O   UNL d   1       7.054  -0.171  32.173  0.00  0.00    -0.348 OA
ATOM      2  C   UNL d   1       7.288   1.467  32.685  0.00  0.00     0.211 A 
ATOM      3  C   UNL d   1       8.040   1.563  32.033  0.00  0.00     0.183 A 
ATOM      4  C   UNL d   1       8.299   0.793  31.450  0.00  0.00     0.180 A 
ATOM      5  C   UNL d   1       6.796   0.599  32.755  0.00  0.00     0.298 A 
ATOM      6  C   UNL d   1       7.806  -0.075  31.521  0.00  0.00     0.179 A 
ENDROOT
BRANCH   5   7
ATOM      7  O   UNL d   1       6.044   0.503  33.408  0.00  0.00    -0.318 OA
BRANCH   7   8
ATOM      8  C   UNL d   1       5.792  -0.402  33.750  0.00  0.00     0.077 A 
ATOM      9  C   UNL d   1       6.254  -0.790  34.600  0.00  0.00     0.075 A 
ATOM     10  C   UNL d   1       5.984  -1.733  34.947  0.00  0.00     0.095 A 
ATOM     11  O   UNL d   1       6.432  -2.098  35.764  0.00  0.00    -0.309 OA
ATOM     12  C   UNL d   1       5.287  -2.274  34.476  0.00  0.00     0.081 A 
ATOM     13  C   UNL d   1       6.183  -3.003  36.109  0.00  0.00     0.090 A 
ATOM     14  C   UNL d   1       5.486  -3.543  35.638  0.00  0.00     0.094 A 
ATOM     15  C   UNL d   1       5.038  -3.179  34.822  0.00  0.00     0.190 A 
ATOM     16  O   UNL d   1       4.341  -3.719  34.350  0.00  0.00    -0.287 OA
ATOM     17  C   UNL d   1       4.812  -1.907  33.625  0.00  0.00     0.085 A 
ATOM     18  C   UNL d   1       5.066  -0.966  33.260  0.00  0.00     0.074 A 
BRANCH  13  19
ATOM     19  C   UNL d   1       6.631  -3.368  36.926  0.00  0.00    -0.002 A 
ATOM     20  C   UNL d   1       7.628  -3.356  36.996  0.00  0.00     0.017 A 
ATOM     21  C   UNL d   1       8.075  -3.721  37.813  0.00  0.00     0.037 A 
ATOM     22  C   UNL d   1       7.526  -4.098  38.558  0.00  0.00     0.065 A 
ATOM     23  C   UNL d   1       6.528  -4.109  38.488  0.00  0.00     0.037 A 
ATOM     24  C   UNL d   1       6.080  -3.744  37.671  0.00  0.00     0.017 A 
BRANCH  22  25
ATOM     25  O   UNL d   1       7.973  -4.463  39.375  0.00  0.00    -0.361 OA
ATOM     26  H   UNL d   1       8.456  -4.848  39.318  0.00  0.00     0.217 HD
ENDBRANCH  22  25
ENDBRANCH  13  19
BRANCH  17  27
ATOM     27  O   UNL d   1       4.116  -2.456  33.162  0.00  0.00    -0.360 OA
ATOM     28  H   UNL d   1       4.286  -2.935  32.805  0.00  0.00     0.217 HD
ENDBRANCH  17  27
ENDBRANCH   7   8
ENDBRANCH   5   7
BRANCH   2  29
ATOM     29  O   UNL d   1       7.029   2.238  33.267  0.00  0.00    -0.346 OA
BRANCH  29  30
ATOM     30  C   UNL d   1       7.382   2.299  34.201  0.00  0.00     0.292 A 
ATOM     31  O   UNL d   1       8.297   1.956  34.414  0.00  0.00    -0.351 OA
ATOM     32  C   UNL d   1       8.649   2.018  35.348  0.00  0.00     0.152 A 
ATOM     33  C   UNL d   1       8.086   2.422  36.069  0.00  0.00     0.178 A 
ATOM     34  C   UNL d   1       9.564   1.675  35.561  0.00  0.00     0.042 C 
ATOM     35  C   UNL d   1       7.171   2.765  35.856  0.00  0.00     0.183 A 
ATOM     36  C   UNL d   1       6.819   2.704  34.922  0.00  0.00     0.204 A 
BRANCH  33  37
ATOM     37  O   UNL d   1       8.439   2.484  37.003  0.00  0.00    -0.390 OA
ATOM     38  H   UNL d   1       8.655   3.024  37.217  0.00  0.00     0.210 HD
ENDBRANCH  33  37
BRANCH  35  39
ATOM     39  O   UNL d   1       6.609   3.170  36.577  0.00  0.00    -0.390 OA
ATOM     40  H   UNL d   1       6.802   3.680  36.871  0.00  0.00     0.210 HD
ENDBRANCH  35  39
BRANCH  36  41
ATOM     41  O   UNL d   1       5.904   3.046  34.709  0.00  0.00    -0.388 OA
ATOM     42  H   UNL d   1       5.605   2.841  34.206  0.00  0.00     0.210 HD
ENDBRANCH  36  41
ENDBRANCH  29  30
ENDBRANCH   2  29
BRANCH   6  43
ATOM     43  C   UNL d   1       8.065  -0.845  30.939  0.00  0.00     0.198 C 
BRANCH  43  44
ATOM     44  O   UNL d   1       7.857  -1.780  31.225  0.00  0.00    -0.398 OA
ATOM     45  H   UNL d   1       7.438  -1.882  31.672  0.00  0.00     0.209 HD
ENDBRANCH  43  44
ENDBRANCH   6  43
BRANCH   3  46
ATOM     46  O   UNL d   1       8.533   2.431  31.962  0.00  0.00    -0.390 OA
ATOM     47  H   UNL d   1       8.387   2.901  32.339  0.00  0.00     0.210 HD
ENDBRANCH   3  46
BRANCH   4  48
ATOM     48  O   UNL d   1       9.050   0.889  30.798  0.00  0.00    -0.390 OA
ATOM     49  H   UNL d   1       9.635   0.794  30.982  0.00  0.00     0.210 HD
ENDBRANCH   4  48
TORSDOF 14
ENDMDL
MODEL 4
REMARK VINA RESULT:   -10.459      2.207      7.313
REMARK INTER + INTRA:          -6.139
REMARK INTER:                 -16.109
REMARK INTRA:                   9.970
REMARK UNBOUND:                10.434
REMARK  14 active torsions:
REMARK  status: ('A' for Active; 'I' for Inactive)
REMARK    1  A    between atoms: C_15  and  O_1 
REMARK    2  A    between atoms: C_18  and  O_1 
REMARK    3  A    between atoms: C_16  and  O_4 
REMARK    4  A    between atoms: C_20  and  O_5 
REMARK    5  A    between atoms: O_5  and  C_27 
REMARK    6  A    between atoms: C_17  and  O_6 
REMARK    7  A    between atoms: C_19  and  O_7 
REMARK    8  A    between atoms: C_22  and  O_8 
REMARK    9  A    between atoms: C_23  and  O_9 
REMARK   10  A    between atoms: O_10  and  C_25 
REMARK   11  A    between atoms: O_12  and  C_31 
REMARK   12  A    between atoms: O_14  and  C_41 
REMARK   13  A    between atoms: C_21  and  C_25 
REMARK   14  A    between atoms: C_34  and  C_36 
ROOT
ATOM      1  O   UNL d   1      12.404 -36.695   8.171  0.00  0.00    -0.348 OA
ATOM      2  C   UNL d   1      12.937 -35.091   7.792  0.00  0.00     0.211 A 
ATOM      3  C   UNL d   1      13.637 -35.466   7.185  0.00  0.00     0.183 A 
ATOM      4  C   UNL d   1      13.721 -36.456   7.071  0.00  0.00     0.180 A 
ATOM      5  C   UNL d   1      12.320 -35.705   8.285  0.00  0.00     0.298 A 
ATOM      6  C   UNL d   1      13.105 -37.070   7.564  0.00  0.00     0.179 A 
ENDROOT
BRANCH   5   7
ATOM      7  O   UNL d   1      11.620 -35.329   8.891  0.00  0.00    -0.318 OA
BRANCH   7   8
ATOM      8  C   UNL d   1      11.282 -35.871   9.661  0.00  0.00     0.077 A 
ATOM      9  C   UNL d   1      11.815 -35.901  10.556  0.00  0.00     0.075 A 
ATOM     10  C   UNL d   1      11.454 -36.468  11.351  0.00  0.00     0.095 A 
ATOM     11  O   UNL d   1      11.971 -36.492  12.207  0.00  0.00    -0.309 OA
ATOM     12  C   UNL d   1      10.602 -36.985  11.268  0.00  0.00     0.081 A 
ATOM     13  C   UNL d   1      11.636 -37.032  12.979  0.00  0.00     0.090 A 
ATOM     14  C   UNL d   1      10.785 -37.549  12.895  0.00  0.00     0.094 A 
ATOM     15  C   UNL d   1      10.267 -37.526  12.039  0.00  0.00     0.190 A 
ATOM     16  O   UNL d   1       9.416 -38.043  11.955  0.00  0.00    -0.287 OA
ATOM     17  C   UNL d   1      10.053 -36.970  10.382  0.00  0.00     0.085 A 
ATOM     18  C   UNL d   1      10.395 -36.410   9.574  0.00  0.00     0.074 A 
BRANCH  13  19
ATOM     19  C   UNL d   1      12.153 -37.056  13.834  0.00  0.00    -0.002 A 
ATOM     20  C   UNL d   1      11.691 -36.880  14.703  0.00  0.00     0.017 A 
ATOM     21  C   UNL d   1      12.208 -36.904  15.558  0.00  0.00     0.037 A 
ATOM     22  C   UNL d   1      13.188 -37.103  15.545  0.00  0.00     0.065 A 
ATOM     23  C   UNL d   1      13.650 -37.279  14.676  0.00  0.00     0.037 A 
ATOM     24  C   UNL d   1      13.133 -37.255  13.820  0.00  0.00     0.017 A 
BRANCH  22  25
ATOM     25  O   UNL d   1      13.705 -37.127  16.401  0.00  0.00    -0.361 OA
ATOM     26  H   UNL d   1      13.655 -37.615  16.780  0.00  0.00     0.217 HD
ENDBRANCH  22  25
ENDBRANCH  13  19
BRANCH  17  27
ATOM     27  O   UNL d   1       9.202 -37.492  10.310  0.00  0.00    -0.360 OA
ATOM     28  H   UNL d   1       8.697 -37.228  10.064  0.00  0.00     0.217 HD
ENDBRANCH  17  27
ENDBRANCH   7   8
ENDBRANCH   5   7
BRANCH   2  29
ATOM     29  O   UNL d   1      12.853 -34.101   7.906  0.00  0.00    -0.346 OA
BRANCH  29  30
ATOM     30  C   UNL d   1      12.380 -33.556   7.213  0.00  0.00     0.292 A 
ATOM     31  O   UNL d   1      11.679 -33.978   6.638  0.00  0.00    -0.351 OA
ATOM     32  C   UNL d   1      11.206 -33.433   5.945  0.00  0.00     0.152 A 
ATOM     33  C   UNL d   1      11.435 -32.467   5.827  0.00  0.00     0.178 A 
ATOM     34  C   UNL d   1      10.505 -33.855   5.370  0.00  0.00     0.042 C 
ATOM     35  C   UNL d   1      12.136 -32.045   6.403  0.00  0.00     0.183 A 
ATOM     36  C   UNL d   1      12.608 -32.590   7.095  0.00  0.00     0.204 A 
BRANCH  33  37
ATOM     37  O   UNL d   1      10.962 -31.922   5.135  0.00  0.00    -0.390 OA
ATOM     38  H   UNL d   1      10.459 -32.149   4.852  0.00  0.00     0.210 HD
ENDBRANCH  33  37
BRANCH  35  39
ATOM     39  O   UNL d   1      12.364 -31.079   6.285  0.00  0.00    -0.390 OA
ATOM     40  H   UNL d   1      11.927 -30.646   6.359  0.00  0.00     0.210 HD
ENDBRANCH  35  39
BRANCH  36  41
ATOM     41  O   UNL d   1      13.309 -32.168   7.670  0.00  0.00    -0.388 OA
ATOM     42  H   UNL d   1      13.269 -31.567   7.818  0.00  0.00     0.210 HD
ENDBRANCH  36  41
ENDBRANCH  29  30
ENDBRANCH   2  29
BRANCH   6  43
ATOM     43  C   UNL d   1      13.189 -38.060   7.450  0.00  0.00     0.198 C 
BRANCH  43  44
ATOM     44  O   UNL d   1      13.369 -38.641   8.244  0.00  0.00    -0.398 OA
ATOM     45  H   UNL d   1      13.832 -38.502   8.632  0.00  0.00     0.209 HD
ENDBRANCH  43  44
ENDBRANCH   6  43
BRANCH   3  46
ATOM     46  O   UNL d   1      14.254 -34.852   6.693  0.00  0.00    -0.390 OA
ATOM     47  H   UNL d   1      14.834 -35.031   6.566  0.00  0.00     0.210 HD
ENDBRANCH   3  46
BRANCH   4  48
ATOM     48  O   UNL d   1      14.422 -36.832   6.465  0.00  0.00    -0.390 OA
ATOM     49  H   UNL d   1      15.021 -36.781   6.614  0.00  0.00     0.210 HD
ENDBRANCH   4  48
TORSDOF 14
ENDMDL
MODEL 5
REMARK VINA RESULT:   -10.401      2.175      7.119
REMARK INTER + INTRA:          -6.047
REMARK INTER:                 -15.841
REMARK INTRA:                   9.793
REMARK UNBOUND:                10.434
REMARK  14 active torsions:
REMARK  status: ('A' for Active; 'I' for Inactive)
REMARK    1  A    between atoms: C_15  and  O_1 
REMARK    2  A    between atoms: C_18  and  O_1 
REMARK    3  A    between atoms: C_16  and  O_4 
REMARK    4  A    between atoms: C_20  and  O_5 
REMARK    5  A    between atoms: O_5  and  C_27 
REMARK    6  A    between atoms: C_17  and  O_6 
REMARK    7  A    between atoms: C_19  and  O_7 
REMARK    8  A    between atoms: C_22  and  O_8 
REMARK    9  A    between atoms: C_23  and  O_9 
REMARK   10  A    between atoms: O_10  and  C_25 
REMARK   11  A    between atoms: O_12  and  C_31 
REMARK   12  A    between atoms: O_14  and  C_41 
REMARK   13  A    between atoms: C_21  and  C_25 
REMARK   14  A    between atoms: C_34  and  C_36 
ROOT
ATOM      1  O   UNL d   1      10.069 -34.945   7.259  0.00  0.00    -0.348 OA
ATOM      2  C   UNL d   1      11.063 -35.032   5.844  0.00  0.00     0.211 A 
ATOM      3  C   UNL d   1      10.518 -34.310   5.417  0.00  0.00     0.183 A 
ATOM      4  C   UNL d   1       9.748 -33.906   5.911  0.00  0.00     0.180 A 
ATOM      5  C   UNL d   1      10.839 -35.349   6.765  0.00  0.00     0.298 A 
ATOM      6  C   UNL d   1       9.524 -34.224   6.832  0.00  0.00     0.179 A 
ENDROOT
BRANCH   5   7
ATOM      7  O   UNL d   1      11.384 -36.070   7.192  0.00  0.00    -0.318 OA
BRANCH   7   8
ATOM      8  C   UNL d   1      10.982 -36.647   7.903  0.00  0.00     0.077 A 
ATOM      9  C   UNL d   1      11.085 -36.392   8.907  0.00  0.00     0.075 A 
ATOM     10  C   UNL d   1      10.662 -36.999   9.639  0.00  0.00     0.095 A 
ATOM     11  O   UNL d   1      10.765 -36.748  10.601  0.00  0.00    -0.309 OA
ATOM     12  C   UNL d   1      10.157 -37.826   9.391  0.00  0.00     0.081 A 
ATOM     13  C   UNL d   1      10.364 -37.322  11.315  0.00  0.00     0.090 A 
ATOM     14  C   UNL d   1       9.859 -38.148  11.066  0.00  0.00     0.094 A 
ATOM     15  C   UNL d   1       9.755 -38.401  10.104  0.00  0.00     0.190 A 
ATOM     16  O   UNL d   1       9.251 -39.227   9.855  0.00  0.00    -0.287 OA
ATOM     17  C   UNL d   1      10.040 -38.102   8.392  0.00  0.00     0.085 A 
ATOM     18  C   UNL d   1      10.455 -37.509   7.644  0.00  0.00     0.074 A 
BRANCH  13  19
ATOM     19  C   UNL d   1      10.467 -37.070  12.277  0.00  0.00    -0.002 A 
ATOM     20  C   UNL d   1       9.735 -36.576  12.747  0.00  0.00     0.017 A 
ATOM     21  C   UNL d   1       9.840 -36.325  13.709  0.00  0.00     0.037 A 
ATOM     22  C   UNL d   1      10.675 -36.567  14.202  0.00  0.00     0.065 A 
ATOM     23  C   UNL d   1      11.407 -37.060  13.732  0.00  0.00     0.037 A 
ATOM     24  C   UNL d   1      11.304 -37.312  12.770  0.00  0.00     0.017 A 
BRANCH  22  25
ATOM     25  O   UNL d   1      10.779 -36.315  15.164  0.00  0.00    -0.361 OA
ATOM     26  H   UNL d   1      10.731 -36.748  15.605  0.00  0.00     0.217 HD
ENDBRANCH  22  25
ENDBRANCH  13  19
BRANCH  17  27
ATOM     27  O   UNL d   1       9.533 -38.931   8.155  0.00  0.00    -0.360 OA
ATOM     28  H   UNL d   1       9.438 -39.368   8.585  0.00  0.00     0.217 HD
ENDBRANCH  17  27
ENDBRANCH   7   8
ENDBRANCH   5   7
BRANCH   2  29
ATOM     29  O   UNL d   1      11.833 -35.435   5.349  0.00  0.00    -0.346 OA
BRANCH  29  30
ATOM     30  C   UNL d   1      12.768 -35.148   5.559  0.00  0.00     0.292 A 
ATOM     31  O   UNL d   1      12.933 -34.262   5.992  0.00  0.00    -0.351 OA
ATOM     32  C   UNL d   1      13.868 -33.975   6.201  0.00  0.00     0.152 A 
ATOM     33  C   UNL d   1      14.637 -34.574   5.978  0.00  0.00     0.178 A 
ATOM     34  C   UNL d   1      14.034 -33.089   6.634  0.00  0.00     0.042 C 
ATOM     35  C   UNL d   1      14.471 -35.460   5.545  0.00  0.00     0.183 A 
ATOM     36  C   UNL d   1      13.537 -35.747   5.336  0.00  0.00     0.204 A 
BRANCH  33  37
ATOM     37  O   UNL d   1      15.572 -34.287   6.188  0.00  0.00    -0.390 OA
ATOM     38  H   UNL d   1      15.679 -33.905   6.665  0.00  0.00     0.210 HD
ENDBRANCH  33  37
BRANCH  35  39
ATOM     39  O   UNL d   1      15.240 -36.059   5.322  0.00  0.00    -0.390 OA
ATOM     40  H   UNL d   1      15.610 -35.924   4.842  0.00  0.00     0.210 HD
ENDBRANCH  35  39
BRANCH  36  41
ATOM     41  O   UNL d   1      13.371 -36.633   4.903  0.00  0.00    -0.388 OA
ATOM     42  H   UNL d   1      13.784 -37.091   4.966  0.00  0.00     0.210 HD
ENDBRANCH  36  41
ENDBRANCH  29  30
ENDBRANCH   2  29
BRANCH   6  43
ATOM     43  C   UNL d   1       8.754 -33.820   7.326  0.00  0.00     0.198 C 
BRANCH  43  44
ATOM     44  O   UNL d   1       8.123 -34.407   7.834  0.00  0.00    -0.398 OA
ATOM     45  H   UNL d   1       7.703 -34.155   8.214  0.00  0.00     0.209 HD
ENDBRANCH  43  44
ENDBRANCH   6  43
BRANCH   3  46
ATOM     46  O   UNL d   1      10.742 -33.993   4.495  0.00  0.00    -0.390 OA
ATOM     47  H   UNL d   1      11.289 -33.722   4.385  0.00  0.00     0.210 HD
ENDBRANCH   3  46
BRANCH   4  48
ATOM     48  O   UNL d   1       9.203 -33.185   5.484  0.00  0.00    -0.390 OA
ATOM     49  H   UNL d   1       8.781 -33.329   5.053  0.00  0.00     0.210 HD
ENDBRANCH   4  48
TORSDOF 14
ENDMDL
