MODEL 1
REMARK VINA RESULT:    -8.947      0.000      0.000
REMARK INTER + INTRA:          -6.096
REMARK INTER:                 -11.363
REMARK INTRA:                   5.267
REMARK UNBOUND:                 5.467
REMARK  6 active torsions:
REMARK  status: ('A' for Active; 'I' for Inactive)
REMARK    1  A    between atoms: O_2  and  C_15 
REMARK    2  A    between atoms: O_3  and  C_17 
REMARK    3  A    between atoms: O_4  and  C_11 
REMARK    4  A    between atoms: O_6  and  C_22 
REMARK    5  A    between atoms: O_7  and  C_20 
REMARK    6  A    between atoms: C_10  and  C_13 
ROOT
ATOM      1  O   UNL d   1      11.809 -37.156  11.610  0.00  0.00    -0.309 OA
ATOM      2  O   UNL d   1       9.109 -35.717  11.367  0.00  0.00    -0.287 OA
ATOM      3  C   UNL d   1      10.409 -36.373  12.373  0.00  0.00     0.084 A 
ATOM      4  C   UNL d   1      11.288 -36.841  12.456  0.00  0.00     0.096 A 
ATOM      5  C   UNL d   1      11.407 -36.981  10.665  0.00  0.00     0.090 A 
ATOM      6  C   UNL d   1       9.921 -36.076  13.194  0.00  0.00     0.119 A 
ATOM      7  C   UNL d   1       9.989 -36.187  11.438  0.00  0.00     0.190 A 
ATOM      8  C   UNL d   1      11.680 -37.014  13.360  0.00  0.00     0.078 A 
ATOM      9  C   UNL d   1      10.312 -36.248  14.098  0.00  0.00     0.136 A 
ATOM     10  C   UNL d   1      10.491 -36.492  10.579  0.00  0.00     0.094 A 
ATOM     11  C   UNL d   1      11.192 -36.717  14.181  0.00  0.00     0.107 A 
ENDROOT
BRANCH   5  12
ATOM     12  C   UNL d   1      11.898 -37.278   9.846  0.00  0.00     0.001 A 
ATOM     13  C   UNL d   1      12.356 -38.167   9.834  0.00  0.00     0.053 A 
ATOM     14  C   UNL d   1      12.846 -38.466   9.015  0.00  0.00     0.099 A 
ATOM     15  C   UNL d   1      12.879 -37.875   8.209  0.00  0.00     0.101 A 
ATOM     16  C   UNL d   1      12.421 -36.986   8.221  0.00  0.00     0.040 A 
ATOM     17  C   UNL d   1      11.930 -36.688   9.040  0.00  0.00     0.017 A 
BRANCH  14  18
ATOM     18  O   UNL d   1      13.305 -39.355   9.002  0.00  0.00    -0.358 OA
ATOM     19  H   UNL d   1      13.162 -39.771   8.566  0.00  0.00     0.217 HD
ENDBRANCH  14  18
BRANCH  15  20
ATOM     20  O   UNL d   1      13.369 -38.173   7.390  0.00  0.00    -0.353 OA
ATOM     21  C   UNL d   1      13.656 -37.502   6.707  0.00  0.00     0.210 C 
ENDBRANCH  15  20
ENDBRANCH   5  12
BRANCH   6  22
ATOM     22  O   UNL d   1       9.041 -35.607  13.111  0.00  0.00    -0.357 OA
ATOM     23  H   UNL d   1       8.982 -35.125  12.726  0.00  0.00     0.218 HD
ENDBRANCH   6  22
BRANCH  11  24
ATOM     24  O   UNL d   1      11.583 -36.889  15.085  0.00  0.00    -0.353 OA
ATOM     25  C   UNL d   1      12.501 -37.279  15.166  0.00  0.00     0.210 C 
ENDBRANCH  11  24
BRANCH   9  26
ATOM     26  O   UNL d   1       9.824 -35.952  14.919  0.00  0.00    -0.351 OA
ATOM     27  C   UNL d   1       9.041 -36.476  15.251  0.00  0.00     0.210 C 
ENDBRANCH   9  26
TORSDOF 6
ENDMDL
MODEL 2
REMARK VINA RESULT:    -8.301     42.670     44.673
REMARK INTER + INTRA:          -5.260
REMARK INTER:                 -10.349
REMARK INTRA:                   5.089
REMARK UNBOUND:                 5.467
REMARK  6 active torsions:
REMARK  status: ('A' for Active; 'I' for Inactive)
REMARK    1  A    between atoms: O_2  and  C_15 
REMARK    2  A    between atoms: O_3  and  C_17 
REMARK    3  A    between atoms: O_4  and  C_11 
REMARK    4  A    between atoms: O_6  and  C_22 
REMARK    5  A    between atoms: O_7  and  C_20 
REMARK    6  A    between atoms: C_10  and  C_13 
ROOT
ATOM      1  O   UNL d   1       8.222   0.173  35.037  0.00  0.00    -0.309 OA
ATOM      2  O   UNL d   1       8.781   2.250  37.227  0.00  0.00    -0.287 OA
ATOM      3  C   UNL d   1       8.019   0.739  36.709  0.00  0.00     0.084 A 
ATOM      4  C   UNL d   1       7.835   0.060  35.998  0.00  0.00     0.096 A 
ATOM      5  C   UNL d   1       8.809   1.004  34.815  0.00  0.00     0.090 A 
ATOM      6  C   UNL d   1       7.640   0.617  37.626  0.00  0.00     0.119 A 
ATOM      7  C   UNL d   1       8.603   1.577  36.508  0.00  0.00     0.190 A 
ATOM      8  C   UNL d   1       7.272  -0.740  36.204  0.00  0.00     0.078 A 
ATOM      9  C   UNL d   1       7.078  -0.183  37.833  0.00  0.00     0.136 A 
ATOM     10  C   UNL d   1       9.001   1.712  35.555  0.00  0.00     0.094 A 
ATOM     11  C   UNL d   1       6.893  -0.862  37.122  0.00  0.00     0.107 A 
ENDROOT
BRANCH   5  12
ATOM     12  C   UNL d   1       9.186   1.123  33.896  0.00  0.00     0.001 A 
ATOM     13  C   UNL d   1       8.818   1.830  33.292  0.00  0.00     0.053 A 
ATOM     14  C   UNL d   1       9.195   1.949  32.373  0.00  0.00     0.099 A 
ATOM     15  C   UNL d   1       9.940   1.361  32.059  0.00  0.00     0.101 A 
ATOM     16  C   UNL d   1      10.308   0.654  32.663  0.00  0.00     0.040 A 
ATOM     17  C   UNL d   1       9.931   0.535  33.581  0.00  0.00     0.017 A 
BRANCH  14  18
ATOM     18  O   UNL d   1       8.827   2.656  31.769  0.00  0.00    -0.358 OA
ATOM     19  H   UNL d   1       8.226   2.655  31.621  0.00  0.00     0.217 HD
ENDBRANCH  14  18
BRANCH  15  20
ATOM     20  O   UNL d   1      10.317   1.479  31.141  0.00  0.00    -0.353 OA
ATOM     21  C   UNL d   1      10.726   0.702  30.663  0.00  0.00     0.210 C 
ENDBRANCH  15  20
ENDBRANCH   5  12
BRANCH   6  22
ATOM     22  O   UNL d   1       7.825   1.296  38.337  0.00  0.00    -0.357 OA
ATOM     23  H   UNL d   1       7.428   1.367  38.808  0.00  0.00     0.218 HD
ENDBRANCH   6  22
BRANCH  11  24
ATOM     24  O   UNL d   1       6.330  -1.662  37.328  0.00  0.00    -0.353 OA
ATOM     25  C   UNL d   1       6.025  -2.262  36.589  0.00  0.00     0.210 C 
ENDBRANCH  11  24
BRANCH   9  26
ATOM     26  O   UNL d   1       6.699  -0.304  38.750  0.00  0.00    -0.351 OA
ATOM     27  C   UNL d   1       7.248  -0.740  39.464  0.00  0.00     0.210 C 
ENDBRANCH   9  26
TORSDOF 6
ENDMDL
MODEL 3
REMARK VINA RESULT:    -8.181     19.005     21.784
REMARK INTER + INTRA:          -5.106
REMARK INTER:                 -10.126
REMARK INTRA:                   5.020
REMARK UNBOUND:                 5.467
REMARK  6 active torsions:
REMARK  status: ('A' for Active; 'I' for Inactive)
REMARK    1  A    between atoms: O_2  and  C_15 
REMARK    2  A    between atoms: O_3  and  C_17 
REMARK    3  A    between atoms: O_4  and  C_11 
REMARK    4  A    between atoms: O_6  and  C_22 
REMARK    5  A    between atoms: O_7  and  C_20 
REMARK    6  A    between atoms: C_10  and  C_13 
ROOT
ATOM      1  O   UNL d   1      27.939 -30.668  22.189  0.00  0.00    -0.309 OA
ATOM      2  O   UNL d   1      29.390 -29.642  24.690  0.00  0.00    -0.287 OA
ATOM      3  C   UNL d   1      29.437 -30.167  23.001  0.00  0.00     0.084 A 
ATOM      4  C   UNL d   1      28.967 -30.501  22.184  0.00  0.00     0.096 A 
ATOM      5  C   UNL d   1      27.393 -30.484  23.056  0.00  0.00     0.090 A 
ATOM      6  C   UNL d   1      30.424 -30.011  22.982  0.00  0.00     0.119 A 
ATOM      7  C   UNL d   1      28.910 -29.976  23.879  0.00  0.00     0.190 A 
ATOM      8  C   UNL d   1      29.485 -30.680  21.347  0.00  0.00     0.078 A 
ATOM      9  C   UNL d   1      30.942 -30.190  22.145  0.00  0.00     0.136 A 
ATOM     10  C   UNL d   1      27.882 -30.135  23.908  0.00  0.00     0.094 A 
ATOM     11  C   UNL d   1      30.473 -30.524  21.328  0.00  0.00     0.107 A 
ENDROOT
BRANCH   5  12
ATOM     12  C   UNL d   1      26.405 -30.641  23.072  0.00  0.00     0.001 A 
ATOM     13  C   UNL d   1      25.775 -29.867  22.999  0.00  0.00     0.053 A 
ATOM     14  C   UNL d   1      24.787 -30.023  23.015  0.00  0.00     0.099 A 
ATOM     15  C   UNL d   1      24.430 -30.953  23.104  0.00  0.00     0.101 A 
ATOM     16  C   UNL d   1      25.060 -31.726  23.177  0.00  0.00     0.040 A 
ATOM     17  C   UNL d   1      26.047 -31.570  23.162  0.00  0.00     0.017 A 
BRANCH  14  18
ATOM     18  O   UNL d   1      24.157 -29.251  22.941  0.00  0.00    -0.358 OA
ATOM     19  H   UNL d   1      24.358 -28.675  23.048  0.00  0.00     0.217 HD
ENDBRANCH  14  18
BRANCH  15  20
ATOM     20  O   UNL d   1      23.443 -31.110  23.120  0.00  0.00    -0.353 OA
ATOM     21  C   UNL d   1      23.085 -32.035  23.243  0.00  0.00     0.210 C 
ENDBRANCH  15  20
ENDBRANCH   5  12
BRANCH   6  22
ATOM     22  O   UNL d   1      30.894 -29.677  23.799  0.00  0.00    -0.357 OA
ATOM     23  H   UNL d   1      30.896 -29.070  23.929  0.00  0.00     0.218 HD
ENDBRANCH   6  22
BRANCH  11  24
ATOM     24  O   UNL d   1      30.991 -30.703  20.491  0.00  0.00    -0.353 OA
ATOM     25  C   UNL d   1      30.545 -31.144  19.712  0.00  0.00     0.210 C 
ENDBRANCH  11  24
BRANCH   9  26
ATOM     26  O   UNL d   1      31.930 -30.034  22.126  0.00  0.00    -0.351 OA
ATOM     27  C   UNL d   1      32.288 -29.104  22.039  0.00  0.00     0.210 C 
ENDBRANCH   9  26
TORSDOF 6
ENDMDL
MODEL 4
REMARK VINA RESULT:    -8.176      1.764      5.564
REMARK INTER + INTRA:          -5.099
REMARK INTER:                 -10.174
REMARK INTRA:                   5.075
REMARK UNBOUND:                 5.467
REMARK  6 active torsions:
REMARK  status: ('A' for Active; 'I' for Inactive)
REMARK    1  A    between atoms: O_2  and  C_15 
REMARK    2  A    between atoms: O_3  and  C_17 
REMARK    3  A    between atoms: O_4  and  C_11 
REMARK    4  A    between atoms: O_6  and  C_22 
REMARK    5  A    between atoms: O_7  and  C_20 
REMARK    6  A    between atoms: C_10  and  C_13 
ROOT
ATOM      1  O   UNL d   1      11.684 -37.082  10.703  0.00  0.00    -0.309 OA
ATOM      2  O   UNL d   1      11.230 -34.054  10.495  0.00  0.00    -0.287 OA
ATOM      3  C   UNL d   1      11.772 -35.574   9.769  0.00  0.00     0.084 A 
ATOM      4  C   UNL d   1      11.921 -36.560   9.832  0.00  0.00     0.096 A 
ATOM      5  C   UNL d   1      11.286 -36.569  11.517  0.00  0.00     0.090 A 
ATOM      6  C   UNL d   1      12.004 -35.086   8.927  0.00  0.00     0.119 A 
ATOM      7  C   UNL d   1      11.375 -35.041  10.570  0.00  0.00     0.190 A 
ATOM      8  C   UNL d   1      12.302 -37.060   9.055  0.00  0.00     0.078 A 
ATOM      9  C   UNL d   1      12.386 -35.586   8.149  0.00  0.00     0.136 A 
ATOM     10  C   UNL d   1      11.131 -35.540  11.450  0.00  0.00     0.094 A 
ATOM     11  C   UNL d   1      12.535 -36.573   8.213  0.00  0.00     0.107 A 
ENDROOT
BRANCH   5  12
ATOM     12  C   UNL d   1      11.055 -37.059  12.357  0.00  0.00     0.001 A 
ATOM     13  C   UNL d   1      11.764 -37.248  13.036  0.00  0.00     0.053 A 
ATOM     14  C   UNL d   1      11.534 -37.739  13.877  0.00  0.00     0.099 A 
ATOM     15  C   UNL d   1      10.593 -38.040  14.038  0.00  0.00     0.101 A 
ATOM     16  C   UNL d   1       9.884 -37.850  13.359  0.00  0.00     0.040 A 
ATOM     17  C   UNL d   1      10.115 -37.360  12.519  0.00  0.00     0.017 A 
BRANCH  14  18
ATOM     18  O   UNL d   1      12.242 -37.929  14.557  0.00  0.00    -0.358 OA
ATOM     19  H   UNL d   1      12.238 -37.633  15.101  0.00  0.00     0.217 HD
ENDBRANCH  14  18
BRANCH  15  20
ATOM     20  O   UNL d   1      10.362 -38.530  14.878  0.00  0.00    -0.353 OA
ATOM     21  C   UNL d   1       9.439 -38.891  15.009  0.00  0.00     0.210 C 
ENDBRANCH  15  20
ENDBRANCH   5  12
BRANCH   6  22
ATOM     22  O   UNL d   1      11.855 -34.100   8.863  0.00  0.00    -0.357 OA
ATOM     23  H   UNL d   1      11.298 -33.861   8.993  0.00  0.00     0.218 HD
ENDBRANCH   6  22
BRANCH  11  24
ATOM     24  O   UNL d   1      12.916 -37.072   7.435  0.00  0.00    -0.353 OA
ATOM     25  C   UNL d   1      13.254 -38.005   7.557  0.00  0.00     0.210 C 
ENDBRANCH  11  24
BRANCH   9  26
ATOM     26  O   UNL d   1      12.618 -35.099   7.307  0.00  0.00    -0.351 OA
ATOM     27  C   UNL d   1      13.407 -34.485   7.286  0.00  0.00     0.210 C 
ENDBRANCH   9  26
TORSDOF 6
ENDMDL
MODEL 5
REMARK VINA RESULT:    -8.066     18.423     19.505
REMARK INTER + INTRA:          -4.957
REMARK INTER:                  -9.989
REMARK INTRA:                   5.032
REMARK UNBOUND:                 5.467
REMARK  6 active torsions:
REMARK  status: ('A' for Active; 'I' for Inactive)
REMARK    1  A    between atoms: O_2  and  C_15 
REMARK    2  A    between atoms: O_3  and  C_17 
REMARK    3  A    between atoms: O_4  and  C_11 
REMARK    4  A    between atoms: O_6  and  C_22 
REMARK    5  A    between atoms: O_7  and  C_20 
REMARK    6  A    between atoms: C_10  and  C_13 
ROOT
ATOM      1  O   UNL d   1      20.677 -35.592  -5.186  0.00  0.00    -0.309 OA
ATOM      2  O   UNL d   1      18.308 -35.115  -7.077  0.00  0.00    -0.287 OA
ATOM      3  C   UNL d   1      19.394 -34.533  -5.807  0.00  0.00     0.084 A 
ATOM      4  C   UNL d   1      20.166 -34.685  -5.189  0.00  0.00     0.096 A 
ATOM      5  C   UNL d   1      20.381 -36.351  -5.835  0.00  0.00     0.090 A 
ATOM      6  C   UNL d   1      18.912 -33.657  -5.799  0.00  0.00     0.119 A 
ATOM      7  C   UNL d   1      19.081 -35.278  -6.464  0.00  0.00     0.190 A 
ATOM      8  C   UNL d   1      20.455 -33.961  -4.564  0.00  0.00     0.078 A 
ATOM      9  C   UNL d   1      19.202 -32.932  -5.173  0.00  0.00     0.136 A 
ATOM     10  C   UNL d   1      19.577 -36.193  -6.478  0.00  0.00     0.094 A 
ATOM     11  C   UNL d   1      19.974 -33.084  -4.556  0.00  0.00     0.107 A 
ENDROOT
BRANCH   5  12
ATOM     12  C   UNL d   1      20.865 -37.226  -5.840  0.00  0.00     0.001 A 
ATOM     13  C   UNL d   1      21.508 -37.437  -6.576  0.00  0.00     0.053 A 
ATOM     14  C   UNL d   1      21.992 -38.312  -6.582  0.00  0.00     0.099 A 
ATOM     15  C   UNL d   1      21.833 -38.976  -5.851  0.00  0.00     0.101 A 
ATOM     16  C   UNL d   1      21.190 -38.765  -5.115  0.00  0.00     0.040 A 
ATOM     17  C   UNL d   1      20.706 -37.891  -5.110  0.00  0.00     0.017 A 
BRANCH  14  18
ATOM     18  O   UNL d   1      22.635 -38.524  -7.318  0.00  0.00    -0.358 OA
ATOM     19  H   UNL d   1      22.557 -39.033  -7.662  0.00  0.00     0.217 HD
ENDBRANCH  14  18
BRANCH  15  20
ATOM     20  O   UNL d   1      22.317 -39.851  -5.857  0.00  0.00    -0.353 OA
ATOM     21  C   UNL d   1      22.276 -40.450  -5.057  0.00  0.00     0.210 C 
ENDBRANCH  15  20
ENDBRANCH   5  12
BRANCH   6  22
ATOM     22  O   UNL d   1      18.141 -33.504  -6.417  0.00  0.00    -0.357 OA
ATOM     23  H   UNL d   1      17.564 -33.477  -6.191  0.00  0.00     0.218 HD
ENDBRANCH   6  22
BRANCH  11  24
ATOM     24  O   UNL d   1      20.264 -32.360  -3.930  0.00  0.00    -0.353 OA
ATOM     25  C   UNL d   1      21.179 -32.383  -3.529  0.00  0.00     0.210 C 
ENDBRANCH  11  24
BRANCH   9  26
ATOM     26  O   UNL d   1      18.721 -32.056  -5.165  0.00  0.00    -0.351 OA
ATOM     27  C   UNL d   1      17.839 -31.974  -4.700  0.00  0.00     0.210 C 
ENDBRANCH   9  26
TORSDOF 6
ENDMDL
