MODEL 1
REMARK VINA RESULT:    -9.498      0.000      0.000
REMARK INTER + INTRA:          -9.498
REMARK INTER:                  -9.498
REMARK INTRA:                   0.000
REMARK UNBOUND:                 0.000
REMARK  0 active torsions:
REMARK  status: ('A' for Active; 'I' for Inactive)
ROOT
ATOM      1  O   UNL d   1      -7.412   6.967 -44.913  0.00  0.00    -0.287 OA
ATOM      2  O   UNL d   1      -7.724   5.372 -48.569  0.00  0.00    -0.287 OA
ATOM      3  C   UNL d   1      -8.072   6.654 -47.456  0.00  0.00     0.029 A 
ATOM      4  C   UNL d   1      -7.994   7.052 -46.542  0.00  0.00     0.029 A 
ATOM      5  C   UNL d   1      -7.142   5.287 -46.939  0.00  0.00     0.029 A 
ATOM      6  C   UNL d   1      -7.064   5.686 -46.026  0.00  0.00     0.029 A 
ATOM      7  C   UNL d   1      -7.490   6.568 -45.827  0.00  0.00     0.194 A 
ATOM      8  C   UNL d   1      -7.646   5.771 -47.655  0.00  0.00     0.194 A 
ATOM      9  C   UNL d   1      -8.594   7.146 -48.212  0.00  0.00     0.016 A 
ATOM     10  C   UNL d   1      -8.433   7.971 -46.320  0.00  0.00     0.016 A 
ATOM     11  C   UNL d   1      -6.703   4.368 -47.162  0.00  0.00     0.016 A 
ATOM     12  C   UNL d   1      -6.542   5.194 -45.270  0.00  0.00     0.016 A 
ATOM     13  C   UNL d   1      -8.959   8.481 -47.060  0.00  0.00     0.001 A 
ATOM     14  C   UNL d   1      -6.096   4.274 -45.469  0.00  0.00     0.001 A 
ATOM     15  C   UNL d   1      -6.177   3.859 -46.422  0.00  0.00     0.001 A 
ATOM     16  C   UNL d   1      -9.041   8.065 -48.012  0.00  0.00     0.001 A 
ENDROOT
TORSDOF 0
ENDMDL
MODEL 2
REMARK VINA RESULT:    -8.578      1.170      3.742
REMARK INTER + INTRA:          -8.578
REMARK INTER:                  -8.578
REMARK INTRA:                   0.000
REMARK UNBOUND:                 0.000
REMARK  0 active torsions:
REMARK  status: ('A' for Active; 'I' for Inactive)
ROOT
ATOM      1  O   UNL d   1      -6.831   6.296 -44.394  0.00  0.00    -0.287 OA
ATOM      2  O   UNL d   1      -6.487   3.467 -47.201  0.00  0.00    -0.287 OA
ATOM      3  C   UNL d   1      -6.255   3.996 -45.568  0.00  0.00     0.029 A 
ATOM      4  C   UNL d   1      -6.341   4.703 -44.866  0.00  0.00     0.029 A 
ATOM      5  C   UNL d   1      -6.977   5.060 -46.728  0.00  0.00     0.029 A 
ATOM      6  C   UNL d   1      -7.063   5.767 -46.027  0.00  0.00     0.029 A 
ATOM      7  C   UNL d   1      -6.745   5.589 -45.095  0.00  0.00     0.194 A 
ATOM      8  C   UNL d   1      -6.573   4.175 -46.499  0.00  0.00     0.194 A 
ATOM      9  C   UNL d   1      -5.836   3.069 -45.345  0.00  0.00     0.016 A 
ATOM     10  C   UNL d   1      -6.014   4.532 -43.892  0.00  0.00     0.016 A 
ATOM     11  C   UNL d   1      -7.304   5.231 -47.703  0.00  0.00     0.016 A 
ATOM     12  C   UNL d   1      -7.482   6.695 -46.250  0.00  0.00     0.016 A 
ATOM     13  C   UNL d   1      -5.592   3.612 -43.646  0.00  0.00     0.001 A 
ATOM     14  C   UNL d   1      -7.815   6.888 -47.218  0.00  0.00     0.001 A 
ATOM     15  C   UNL d   1      -7.726   6.151 -47.949  0.00  0.00     0.001 A 
ATOM     16  C   UNL d   1      -5.503   2.876 -44.377  0.00  0.00     0.001 A 
ENDROOT
TORSDOF 0
ENDMDL
MODEL 3
REMARK VINA RESULT:    -8.372     42.030     43.486
REMARK INTER + INTRA:          -8.372
REMARK INTER:                  -8.372
REMARK INTRA:                   0.000
REMARK UNBOUND:                 0.000
REMARK  0 active torsions:
REMARK  status: ('A' for Active; 'I' for Inactive)
ROOT
ATOM      1  O   UNL d   1     -39.358  21.491 -18.560  0.00  0.00    -0.287 OA
ATOM      2  O   UNL d   1     -36.066  19.328 -19.257  0.00  0.00    -0.287 OA
ATOM      3  C   UNL d   1     -37.528  20.061 -19.827  0.00  0.00     0.029 A 
ATOM      4  C   UNL d   1     -38.351  20.601 -19.653  0.00  0.00     0.029 A 
ATOM      5  C   UNL d   1     -37.073  20.217 -18.164  0.00  0.00     0.029 A 
ATOM      6  C   UNL d   1     -37.896  20.758 -17.989  0.00  0.00     0.029 A 
ATOM      7  C   UNL d   1     -38.535  20.950 -18.734  0.00  0.00     0.194 A 
ATOM      8  C   UNL d   1     -36.889  19.868 -19.083  0.00  0.00     0.194 A 
ATOM      9  C   UNL d   1     -37.323  19.691 -20.779  0.00  0.00     0.016 A 
ATOM     10  C   UNL d   1     -39.026  20.810 -20.418  0.00  0.00     0.016 A 
ATOM     11  C   UNL d   1     -36.397  20.008 -17.398  0.00  0.00     0.016 A 
ATOM     12  C   UNL d   1     -38.101  21.128 -17.037  0.00  0.00     0.016 A 
ATOM     13  C   UNL d   1     -38.842  20.450 -21.378  0.00  0.00     0.001 A 
ATOM     14  C   UNL d   1     -37.440  20.932 -16.257  0.00  0.00     0.001 A 
ATOM     15  C   UNL d   1     -36.582  20.368 -16.438  0.00  0.00     0.001 A 
ATOM     16  C   UNL d   1     -37.984  19.887 -21.560  0.00  0.00     0.001 A 
ENDROOT
TORSDOF 0
ENDMDL
MODEL 4
REMARK VINA RESULT:    -8.361     21.229     22.761
REMARK INTER + INTRA:          -8.361
REMARK INTER:                  -8.361
REMARK INTRA:                   0.000
REMARK UNBOUND:                 0.000
REMARK  0 active torsions:
REMARK  status: ('A' for Active; 'I' for Inactive)
ROOT
ATOM      1  O   UNL d   1     -18.140  16.095 -29.742  0.00  0.00    -0.287 OA
ATOM      2  O   UNL d   1     -16.905  13.358 -27.098  0.00  0.00    -0.287 OA
ATOM      3  C   UNL d   1     -16.564  14.440 -28.407  0.00  0.00     0.029 A 
ATOM      4  C   UNL d   1     -16.873  15.125 -29.068  0.00  0.00     0.029 A 
ATOM      5  C   UNL d   1     -18.172  14.328 -27.772  0.00  0.00     0.029 A 
ATOM      6  C   UNL d   1     -18.481  15.012 -28.433  0.00  0.00     0.029 A 
ATOM      7  C   UNL d   1     -17.831  15.410 -29.081  0.00  0.00     0.194 A 
ATOM      8  C   UNL d   1     -17.214  14.042 -27.759  0.00  0.00     0.194 A 
ATOM      9  C   UNL d   1     -15.569  14.132 -28.380  0.00  0.00     0.016 A 
ATOM     10  C   UNL d   1     -16.208  15.549 -29.749  0.00  0.00     0.016 A 
ATOM     11  C   UNL d   1     -18.837  13.904 -27.091  0.00  0.00     0.016 A 
ATOM     12  C   UNL d   1     -19.476  15.320 -28.459  0.00  0.00     0.016 A 
ATOM     13  C   UNL d   1     -15.209  15.256 -29.741  0.00  0.00     0.001 A 
ATOM     14  C   UNL d   1     -20.158  14.910 -27.788  0.00  0.00     0.001 A 
ATOM     15  C   UNL d   1     -19.837  14.197 -27.099  0.00  0.00     0.001 A 
ATOM     16  C   UNL d   1     -14.887  14.543 -29.052  0.00  0.00     0.001 A 
ENDROOT
TORSDOF 0
ENDMDL
MODEL 5
REMARK VINA RESULT:    -8.335     21.215     22.714
REMARK INTER + INTRA:          -8.335
REMARK INTER:                  -8.335
REMARK INTRA:                   0.000
REMARK UNBOUND:                 0.000
REMARK  0 active torsions:
REMARK  status: ('A' for Active; 'I' for Inactive)
ROOT
ATOM      1  O   UNL d   1     -16.863  13.334 -27.163  0.00  0.00    -0.287 OA
ATOM      2  O   UNL d   1     -18.183  16.121 -29.710  0.00  0.00    -0.287 OA
ATOM      3  C   UNL d   1     -16.888  15.162 -29.076  0.00  0.00     0.029 A 
ATOM      4  C   UNL d   1     -16.558  14.465 -28.439  0.00  0.00     0.029 A 
ATOM      5  C   UNL d   1     -18.488  14.990 -28.435  0.00  0.00     0.029 A 
ATOM      6  C   UNL d   1     -18.158  14.293 -27.798  0.00  0.00     0.029 A 
ATOM      7  C   UNL d   1     -17.193  14.030 -27.800  0.00  0.00     0.194 A 
ATOM      8  C   UNL d   1     -17.853  15.424 -29.073  0.00  0.00     0.194 A 
ATOM      9  C   UNL d   1     -16.239  15.623 -29.747  0.00  0.00     0.016 A 
ATOM     10  C   UNL d   1     -15.556  14.181 -28.429  0.00  0.00     0.016 A 
ATOM     11  C   UNL d   1     -19.490  15.274 -28.444  0.00  0.00     0.016 A 
ATOM     12  C   UNL d   1     -18.807  13.831 -27.126  0.00  0.00     0.016 A 
ATOM     13  C   UNL d   1     -14.889  14.629 -29.092  0.00  0.00     0.001 A 
ATOM     14  C   UNL d   1     -19.814  14.099 -27.118  0.00  0.00     0.001 A 
ATOM     15  C   UNL d   1     -20.158  14.826 -27.782  0.00  0.00     0.001 A 
ATOM     16  C   UNL d   1     -15.233  15.355 -29.755  0.00  0.00     0.001 A 
ENDROOT
TORSDOF 0
ENDMDL
