MODEL 1
REMARK VINA RESULT:    -7.835      0.000      0.000
REMARK INTER + INTRA:          -7.725
REMARK INTER:                  -8.727
REMARK INTRA:                   1.002
REMARK UNBOUND:                 1.026
REMARK  3 active torsions:
REMARK  status: ('A' for Active; 'I' for Inactive)
REMARK    1  A    between atoms: O_2  and  C_10 
REMARK    2  A    between atoms: O_4  and  C_13 
REMARK    3  A    between atoms: C_7  and  C_9 
ROOT
ATOM      1  O   UNL d   1      12.902  32.474  43.204  0.00  0.00    -0.309 OA
ATOM      2  O   UNL d   1      11.439  33.999  45.334  0.00  0.00    -0.287 OA
ATOM      3  C   UNL d   1      12.923  33.545  44.565  0.00  0.00     0.081 A 
ATOM      4  C   UNL d   1      13.411  33.037  43.855  0.00  0.00     0.095 A 
ATOM      5  C   UNL d   1      11.905  32.420  43.263  0.00  0.00     0.090 A 
ATOM      6  C   UNL d   1      11.927  33.490  44.624  0.00  0.00     0.190 A 
ATOM      7  C   UNL d   1      13.440  34.135  45.250  0.00  0.00     0.085 A 
ATOM      8  C   UNL d   1      11.417  32.928  43.973  0.00  0.00     0.094 A 
ATOM      9  C   UNL d   1      14.449  33.083  43.781  0.00  0.00     0.075 A 
ATOM     10  C   UNL d   1      14.986  33.667  44.456  0.00  0.00     0.071 A 
ATOM     11  C   UNL d   1      14.479  34.196  45.195  0.00  0.00     0.074 A 
ENDROOT
BRANCH   5  12
ATOM     12  C   UNL d   1      11.396  31.857  42.612  0.00  0.00    -0.002 A 
ATOM     13  C   UNL d   1      11.006  32.272  41.790  0.00  0.00     0.014 A 
ATOM     14  C   UNL d   1      10.497  31.710  41.138  0.00  0.00     0.001 A 
ATOM     15  C   UNL d   1      10.377  30.732  41.309  0.00  0.00     0.000 A 
ATOM     16  C   UNL d   1      10.767  30.316  42.131  0.00  0.00     0.001 A 
ATOM     17  C   UNL d   1      11.276  30.879  42.782  0.00  0.00     0.014 A 
ENDBRANCH   5  12
BRANCH   7  18
ATOM     18  O   UNL d   1      12.942  34.639  45.956  0.00  0.00    -0.360 OA
ATOM     19  H   UNL d   1      13.182  34.693  46.525  0.00  0.00     0.217 HD
ENDBRANCH   7  18
BRANCH  10  20
ATOM     20  O   UNL d   1      15.983  33.719  44.394  0.00  0.00    -0.361 OA
ATOM     21  H   UNL d   1      16.267  33.592  43.858  0.00  0.00     0.217 HD
ENDBRANCH  10  20
TORSDOF 3
ENDMDL
MODEL 2
REMARK VINA RESULT:    -7.831      2.470      5.090
REMARK INTER + INTRA:          -7.721
REMARK INTER:                  -8.762
REMARK INTRA:                   1.041
REMARK UNBOUND:                 1.026
REMARK  3 active torsions:
REMARK  status: ('A' for Active; 'I' for Inactive)
REMARK    1  A    between atoms: O_2  and  C_10 
REMARK    2  A    between atoms: O_4  and  C_13 
REMARK    3  A    between atoms: C_7  and  C_9 
ROOT
ATOM      1  O   UNL d   1      10.724  32.203  42.274  0.00  0.00    -0.309 OA
ATOM      2  O   UNL d   1      13.107  32.198  40.453  0.00  0.00    -0.287 OA
ATOM      3  C   UNL d   1      11.527  31.616  40.856  0.00  0.00     0.081 A 
ATOM      4  C   UNL d   1      10.732  31.618  41.463  0.00  0.00     0.095 A 
ATOM      5  C   UNL d   1      11.510  32.786  42.478  0.00  0.00     0.090 A 
ATOM      6  C   UNL d   1      12.313  32.200  41.060  0.00  0.00     0.190 A 
ATOM      7  C   UNL d   1      11.550  31.012  40.008  0.00  0.00     0.085 A 
ATOM      8  C   UNL d   1      12.304  32.785  41.871  0.00  0.00     0.094 A 
ATOM      9  C   UNL d   1       9.906  31.015  41.264  0.00  0.00     0.075 A 
ATOM     10  C   UNL d   1       9.908  30.403  40.422  0.00  0.00     0.071 A 
ATOM     11  C   UNL d   1      10.735  30.401  39.790  0.00  0.00     0.074 A 
ENDROOT
BRANCH   5  12
ATOM     12  C   UNL d   1      11.501  33.371  43.289  0.00  0.00    -0.002 A 
ATOM     13  C   UNL d   1      11.422  34.363  43.189  0.00  0.00     0.014 A 
ATOM     14  C   UNL d   1      11.413  34.948  44.000  0.00  0.00     0.001 A 
ATOM     15  C   UNL d   1      11.484  34.541  44.911  0.00  0.00     0.000 A 
ATOM     16  C   UNL d   1      11.563  33.550  45.011  0.00  0.00     0.001 A 
ATOM     17  C   UNL d   1      11.572  32.965  44.200  0.00  0.00     0.014 A 
ENDBRANCH   5  12
BRANCH   7  18
ATOM     18  O   UNL d   1      12.350  31.019  39.408  0.00  0.00    -0.360 OA
ATOM     19  H   UNL d   1      12.771  31.470  39.459  0.00  0.00     0.217 HD
ENDBRANCH   7  18
BRANCH  10  20
ATOM     20  O   UNL d   1       9.119  29.821  40.221  0.00  0.00    -0.361 OA
ATOM     21  H   UNL d   1       8.706  29.696  40.666  0.00  0.00     0.217 HD
ENDBRANCH  10  20
TORSDOF 3
ENDMDL
MODEL 3
REMARK VINA RESULT:    -7.619     19.949     21.058
REMARK INTER + INTRA:          -7.484
REMARK INTER:                  -8.502
REMARK INTRA:                   1.018
REMARK UNBOUND:                 1.026
REMARK  3 active torsions:
REMARK  status: ('A' for Active; 'I' for Inactive)
REMARK    1  A    between atoms: O_2  and  C_10 
REMARK    2  A    between atoms: O_4  and  C_13 
REMARK    3  A    between atoms: C_7  and  C_9 
ROOT
ATOM      1  O   UNL d   1      -8.312  28.157  43.070  0.00  0.00    -0.309 OA
ATOM      2  O   UNL d   1      -6.566  29.777  44.894  0.00  0.00    -0.287 OA
ATOM      3  C   UNL d   1      -7.541  29.657  43.468  0.00  0.00     0.081 A 
ATOM      4  C   UNL d   1      -8.123  29.117  42.860  0.00  0.00     0.095 A 
ATOM      5  C   UNL d   1      -7.919  27.738  43.889  0.00  0.00     0.090 A 
ATOM      6  C   UNL d   1      -7.148  29.237  44.286  0.00  0.00     0.190 A 
ATOM      7  C   UNL d   1      -7.336  30.656  43.261  0.00  0.00     0.085 A 
ATOM      8  C   UNL d   1      -7.337  28.278  44.497  0.00  0.00     0.094 A 
ATOM      9  C   UNL d   1      -8.540  29.539  42.004  0.00  0.00     0.075 A 
ATOM     10  C   UNL d   1      -8.348  30.538  41.778  0.00  0.00     0.071 A 
ATOM     11  C   UNL d   1      -7.742  31.100  42.411  0.00  0.00     0.074 A 
ENDROOT
BRANCH   5  12
ATOM     12  C   UNL d   1      -8.108  26.779  44.099  0.00  0.00    -0.002 A 
ATOM     13  C   UNL d   1      -8.988  26.519  44.496  0.00  0.00     0.014 A 
ATOM     14  C   UNL d   1      -9.177  25.559  44.707  0.00  0.00     0.001 A 
ATOM     15  C   UNL d   1      -8.486  24.861  44.520  0.00  0.00     0.000 A 
ATOM     16  C   UNL d   1      -7.606  25.122  44.124  0.00  0.00     0.001 A 
ATOM     17  C   UNL d   1      -7.417  26.081  43.913  0.00  0.00     0.014 A 
ENDBRANCH   5  12
BRANCH   7  18
ATOM     18  O   UNL d   1      -6.752  31.187  43.876  0.00  0.00    -0.360 OA
ATOM     19  H   UNL d   1      -6.161  31.295  43.725  0.00  0.00     0.217 HD
ENDBRANCH   7  18
BRANCH  10  20
ATOM     20  O   UNL d   1      -8.743  30.953  40.958  0.00  0.00    -0.361 OA
ATOM     21  H   UNL d   1      -8.373  31.140  40.497  0.00  0.00     0.217 HD
ENDBRANCH  10  20
TORSDOF 3
ENDMDL
MODEL 4
REMARK VINA RESULT:    -7.527      2.677      3.905
REMARK INTER + INTRA:          -7.381
REMARK INTER:                  -8.434
REMARK INTRA:                   1.053
REMARK UNBOUND:                 1.026
REMARK  3 active torsions:
REMARK  status: ('A' for Active; 'I' for Inactive)
REMARK    1  A    between atoms: O_2  and  C_10 
REMARK    2  A    between atoms: O_4  and  C_13 
REMARK    3  A    between atoms: C_7  and  C_9 
ROOT
ATOM      1  O   UNL d   1      14.589  34.453  45.378  0.00  0.00    -0.309 OA
ATOM      2  O   UNL d   1      15.607  32.278  43.579  0.00  0.00    -0.287 OA
ATOM      3  C   UNL d   1      15.889  33.452  44.822  0.00  0.00     0.081 A 
ATOM      4  C   UNL d   1      15.549  34.177  45.421  0.00  0.00     0.095 A 
ATOM      5  C   UNL d   1      13.968  34.004  44.735  0.00  0.00     0.090 A 
ATOM      6  C   UNL d   1      15.268  33.003  44.179  0.00  0.00     0.190 A 
ATOM      7  C   UNL d   1      16.886  33.154  44.856  0.00  0.00     0.085 A 
ATOM      8  C   UNL d   1      14.308  33.279  44.136  0.00  0.00     0.094 A 
ATOM      9  C   UNL d   1      16.184  34.653  46.096  0.00  0.00     0.075 A 
ATOM     10  C   UNL d   1      17.185  34.371  46.147  0.00  0.00     0.071 A 
ATOM     11  C   UNL d   1      17.538  33.617  45.523  0.00  0.00     0.074 A 
ENDROOT
BRANCH   5  12
ATOM     12  C   UNL d   1      13.008  34.280  44.692  0.00  0.00    -0.002 A 
ATOM     13  C   UNL d   1      12.293  33.652  45.001  0.00  0.00     0.014 A 
ATOM     14  C   UNL d   1      11.333  33.928  44.958  0.00  0.00     0.001 A 
ATOM     15  C   UNL d   1      11.088  34.832  44.606  0.00  0.00     0.000 A 
ATOM     16  C   UNL d   1      11.803  35.459  44.297  0.00  0.00     0.001 A 
ATOM     17  C   UNL d   1      12.763  35.183  44.341  0.00  0.00     0.014 A 
ENDBRANCH   5  12
BRANCH   7  18
ATOM     18  O   UNL d   1      17.214  32.428  44.251  0.00  0.00    -0.360 OA
ATOM     19  H   UNL d   1      17.260  31.847  44.462  0.00  0.00     0.217 HD
ENDBRANCH   7  18
BRANCH  10  20
ATOM     20  O   UNL d   1      17.803  34.823  46.791  0.00  0.00    -0.361 OA
ATOM     21  H   UNL d   1      18.364  34.583  46.902  0.00  0.00     0.217 HD
ENDBRANCH  10  20
TORSDOF 3
ENDMDL
MODEL 5
REMARK VINA RESULT:    -7.213     19.425     21.372
REMARK INTER + INTRA:          -7.030
REMARK INTER:                  -8.029
REMARK INTRA:                   0.999
REMARK UNBOUND:                 1.026
REMARK  3 active torsions:
REMARK  status: ('A' for Active; 'I' for Inactive)
REMARK    1  A    between atoms: O_2  and  C_10 
REMARK    2  A    between atoms: O_4  and  C_13 
REMARK    3  A    between atoms: C_7  and  C_9 
ROOT
ATOM      1  O   UNL d   1      -7.696  27.433  44.449  0.00  0.00    -0.309 OA
ATOM      2  O   UNL d   1      -9.179  28.462  42.053  0.00  0.00    -0.287 OA
ATOM      3  C   UNL d   1      -8.042  28.713  43.335  0.00  0.00     0.081 A 
ATOM      4  C   UNL d   1      -7.547  28.370  44.133  0.00  0.00     0.095 A 
ATOM      5  C   UNL d   1      -8.340  26.839  43.967  0.00  0.00     0.090 A 
ATOM      6  C   UNL d   1      -8.685  28.119  42.852  0.00  0.00     0.190 A 
ATOM      7  C   UNL d   1      -7.896  29.686  42.994  0.00  0.00     0.085 A 
ATOM      8  C   UNL d   1      -8.834  27.182  43.168  0.00  0.00     0.094 A 
ATOM      9  C   UNL d   1      -6.874  28.977  44.647  0.00  0.00     0.075 A 
ATOM     10  C   UNL d   1      -6.713  29.954  44.323  0.00  0.00     0.071 A 
ATOM     11  C   UNL d   1      -7.228  30.311  43.492  0.00  0.00     0.074 A 
ENDROOT
BRANCH   5  12
ATOM     12  C   UNL d   1      -8.489  25.902  44.283  0.00  0.00    -0.002 A 
ATOM     13  C   UNL d   1      -7.904  25.163  43.950  0.00  0.00     0.014 A 
ATOM     14  C   UNL d   1      -8.053  24.226  44.266  0.00  0.00     0.001 A 
ATOM     15  C   UNL d   1      -8.788  24.028  44.915  0.00  0.00     0.000 A 
ATOM     16  C   UNL d   1      -9.373  24.768  45.248  0.00  0.00     0.001 A 
ATOM     17  C   UNL d   1      -9.224  25.705  44.932  0.00  0.00     0.014 A 
ENDBRANCH   5  12
BRANCH   7  18
ATOM     18  O   UNL d   1      -8.396  30.019  42.194  0.00  0.00    -0.360 OA
ATOM     19  H   UNL d   1      -8.455  29.658  41.694  0.00  0.00     0.217 HD
ENDBRANCH   7  18
BRANCH  10  20
ATOM     20  O   UNL d   1      -6.068  30.545  44.809  0.00  0.00    -0.361 OA
ATOM     21  H   UNL d   1      -5.525  30.317  45.002  0.00  0.00     0.217 HD
ENDBRANCH  10  20
TORSDOF 3
ENDMDL
