MODEL 1
REMARK VINA RESULT:    -8.913      0.000      0.000
REMARK INTER + INTRA:          -4.274
REMARK INTER:                 -15.130
REMARK INTRA:                  10.856
REMARK UNBOUND:                 9.850
REMARK  14 active torsions:
REMARK  status: ('A' for Active; 'I' for Inactive)
REMARK    1  A    between atoms: C_15  and  O_1 
REMARK    2  A    between atoms: C_18  and  O_1 
REMARK    3  A    between atoms: C_16  and  O_4 
REMARK    4  A    between atoms: C_20  and  O_5 
REMARK    5  A    between atoms: O_5  and  C_27 
REMARK    6  A    between atoms: C_17  and  O_6 
REMARK    7  A    between atoms: C_19  and  O_7 
REMARK    8  A    between atoms: C_22  and  O_8 
REMARK    9  A    between atoms: C_23  and  O_9 
REMARK   10  A    between atoms: O_10  and  C_25 
REMARK   11  A    between atoms: O_12  and  C_31 
REMARK   12  A    between atoms: O_14  and  C_41 
REMARK   13  A    between atoms: C_21  and  C_25 
REMARK   14  A    between atoms: C_34  and  C_36 
ROOT
ATOM      1  O   UNL d   1      13.431  24.108   3.408  0.00  0.00    -0.348 OA
ATOM      2  C   UNL d   1      14.645  24.804   2.388  0.00  0.00     0.211 A 
ATOM      3  C   UNL d   1      13.935  25.269   1.860  0.00  0.00     0.183 A 
ATOM      4  C   UNL d   1      12.972  25.155   2.107  0.00  0.00     0.180 A 
ATOM      5  C   UNL d   1      14.393  24.223   3.162  0.00  0.00     0.298 A 
ATOM      6  C   UNL d   1      12.720  24.574   2.881  0.00  0.00     0.179 A 
ENDROOT
BRANCH   5   7
ATOM      7  O   UNL d   1      15.103  23.757   3.690  0.00  0.00    -0.318 OA
BRANCH   7   8
ATOM      8  C   UNL d   1      14.849  23.149   4.442  0.00  0.00     0.077 A 
ATOM      9  C   UNL d   1      15.235  23.305   5.397  0.00  0.00     0.075 A 
ATOM     10  C   UNL d   1      14.963  22.665   6.172  0.00  0.00     0.095 A 
ATOM     11  O   UNL d   1      15.337  22.822   7.086  0.00  0.00    -0.309 OA
ATOM     12  C   UNL d   1      14.338  21.901   6.012  0.00  0.00     0.081 A 
ATOM     13  C   UNL d   1      15.086  22.215   7.840  0.00  0.00     0.090 A 
ATOM     14  C   UNL d   1      14.461  21.452   7.680  0.00  0.00     0.094 A 
ATOM     15  C   UNL d   1      14.086  21.294   6.767  0.00  0.00     0.190 A 
ATOM     16  O   UNL d   1      13.461  20.531   6.606  0.00  0.00    -0.287 OA
ATOM     17  C   UNL d   1      13.941  21.725   5.065  0.00  0.00     0.085 A 
ATOM     18  C   UNL d   1      14.198  22.353   4.275  0.00  0.00     0.074 A 
BRANCH  13  19
ATOM     19  C   UNL d   1      15.460  22.372   8.755  0.00  0.00    -0.002 A 
ATOM     20  C   UNL d   1      16.442  22.274   8.917  0.00  0.00     0.017 A 
ATOM     21  C   UNL d   1      16.814  22.431   9.832  0.00  0.00     0.037 A 
ATOM     22  C   UNL d   1      16.206  22.686  10.583  0.00  0.00     0.065 A 
ATOM     23  C   UNL d   1      15.224  22.783  10.421  0.00  0.00     0.037 A 
ATOM     24  C   UNL d   1      14.851  22.626   9.506  0.00  0.00     0.017 A 
BRANCH  22  25
ATOM     25  O   UNL d   1      16.580  22.842  11.498  0.00  0.00    -0.361 OA
ATOM     26  H   UNL d   1      17.193  22.831  11.588  0.00  0.00     0.217 HD
ENDBRANCH  22  25
ENDBRANCH  13  19
BRANCH  17  27
ATOM     27  O   UNL d   1      13.316  20.958   4.917  0.00  0.00    -0.360 OA
ATOM     28  H   UNL d   1      12.883  20.992   4.474  0.00  0.00     0.217 HD
ENDBRANCH  17  27
ENDBRANCH   7   8
ENDBRANCH   5   7
BRANCH   2  29
ATOM     29  O   UNL d   1      15.607  24.919   2.141  0.00  0.00    -0.346 OA
BRANCH  29  30
ATOM     30  C   UNL d   1      16.131  25.684   2.515  0.00  0.00     0.292 A 
ATOM     31  O   UNL d   1      15.752  26.233   3.260  0.00  0.00    -0.351 OA
ATOM     32  C   UNL d   1      16.276  26.998   3.634  0.00  0.00     0.152 A 
ATOM     33  C   UNL d   1      17.179  27.214   3.263  0.00  0.00     0.178 A 
ATOM     34  C   UNL d   1      15.897  27.547   4.379  0.00  0.00     0.042 C 
ATOM     35  C   UNL d   1      17.558  26.665   2.518  0.00  0.00     0.183 A 
ATOM     36  C   UNL d   1      17.034  25.900   2.144  0.00  0.00     0.204 A 
BRANCH  33  37
ATOM     37  O   UNL d   1      17.703  27.980   3.637  0.00  0.00    -0.390 OA
ATOM     38  H   UNL d   1      17.727  28.069   4.250  0.00  0.00     0.210 HD
ENDBRANCH  33  37
BRANCH  35  39
ATOM     39  O   UNL d   1      18.461  26.882   2.147  0.00  0.00    -0.390 OA
ATOM     40  H   UNL d   1      18.814  27.311   2.422  0.00  0.00     0.210 HD
ENDBRANCH  35  39
BRANCH  36  41
ATOM     41  O   UNL d   1      17.413  25.351   1.399  0.00  0.00    -0.388 OA
ATOM     42  H   UNL d   1      18.023  25.363   1.285  0.00  0.00     0.210 HD
ENDBRANCH  36  41
ENDBRANCH  29  30
ENDBRANCH   2  29
BRANCH   6  43
ATOM     43  C   UNL d   1      11.758  24.459   3.127  0.00  0.00     0.198 C 
BRANCH  43  44
ATOM     44  O   UNL d   1      11.351  23.546   3.140  0.00  0.00    -0.398 OA
ATOM     45  H   UNL d   1      10.823  23.446   3.450  0.00  0.00     0.209 HD
ENDBRANCH  43  44
ENDBRANCH   6  43
BRANCH   3  46
ATOM     46  O   UNL d   1      14.187  25.850   1.086  0.00  0.00    -0.390 OA
ATOM     47  H   UNL d   1      14.541  26.351   1.176  0.00  0.00     0.210 HD
ENDBRANCH   3  46
BRANCH   4  48
ATOM     48  O   UNL d   1      12.262  25.620   1.579  0.00  0.00    -0.390 OA
ATOM     49  H   UNL d   1      11.781  25.882   1.870  0.00  0.00     0.210 HD
ENDBRANCH   4  48
TORSDOF 14
ENDMDL
MODEL 2
REMARK VINA RESULT:    -8.720      1.648      3.973
REMARK INTER + INTRA:          -3.968
REMARK INTER:                 -14.811
REMARK INTRA:                  10.844
REMARK UNBOUND:                 9.850
REMARK  14 active torsions:
REMARK  status: ('A' for Active; 'I' for Inactive)
REMARK    1  A    between atoms: C_15  and  O_1 
REMARK    2  A    between atoms: C_18  and  O_1 
REMARK    3  A    between atoms: C_16  and  O_4 
REMARK    4  A    between atoms: C_20  and  O_5 
REMARK    5  A    between atoms: O_5  and  C_27 
REMARK    6  A    between atoms: C_17  and  O_6 
REMARK    7  A    between atoms: C_19  and  O_7 
REMARK    8  A    between atoms: C_22  and  O_8 
REMARK    9  A    between atoms: C_23  and  O_9 
REMARK   10  A    between atoms: O_10  and  C_25 
REMARK   11  A    between atoms: O_12  and  C_31 
REMARK   12  A    between atoms: O_14  and  C_41 
REMARK   13  A    between atoms: C_21  and  C_25 
REMARK   14  A    between atoms: C_34  and  C_36 
ROOT
ATOM      1  O   UNL d   1      14.832  24.522   2.859  0.00  0.00    -0.348 OA
ATOM      2  C   UNL d   1      13.684  25.428   1.931  0.00  0.00     0.211 A 
ATOM      3  C   UNL d   1      14.406  25.688   1.290  0.00  0.00     0.183 A 
ATOM      4  C   UNL d   1      15.342  25.365   1.434  0.00  0.00     0.180 A 
ATOM      5  C   UNL d   1      13.897  24.846   2.716  0.00  0.00     0.298 A 
ATOM      6  C   UNL d   1      15.555  24.782   2.218  0.00  0.00     0.179 A 
ENDROOT
BRANCH   5   7
ATOM      7  O   UNL d   1      13.174  24.586   3.356  0.00  0.00    -0.318 OA
BRANCH   7   8
ATOM      8  C   UNL d   1      13.273  23.762   3.914  0.00  0.00     0.077 A 
ATOM      9  C   UNL d   1      13.972  23.731   4.686  0.00  0.00     0.075 A 
ATOM     10  C   UNL d   1      14.066  22.868   5.261  0.00  0.00     0.095 A 
ATOM     11  O   UNL d   1      14.739  22.846   6.000  0.00  0.00    -0.309 OA
ATOM     12  C   UNL d   1      13.495  22.067   5.081  0.00  0.00     0.081 A 
ATOM     13  C   UNL d   1      14.841  22.024   6.560  0.00  0.00     0.090 A 
ATOM     14  C   UNL d   1      14.269  21.223   6.380  0.00  0.00     0.094 A 
ATOM     15  C   UNL d   1      13.596  21.245   5.641  0.00  0.00     0.190 A 
ATOM     16  O   UNL d   1      13.025  20.444   5.462  0.00  0.00    -0.287 OA
ATOM     17  C   UNL d   1      12.789  22.075   4.315  0.00  0.00     0.085 A 
ATOM     18  C   UNL d   1      12.678  22.928   3.728  0.00  0.00     0.074 A 
BRANCH  13  19
ATOM     19  C   UNL d   1      15.514  22.002   7.300  0.00  0.00    -0.002 A 
ATOM     20  C   UNL d   1      16.438  21.662   7.125  0.00  0.00     0.017 A 
ATOM     21  C   UNL d   1      17.110  21.640   7.865  0.00  0.00     0.037 A 
ATOM     22  C   UNL d   1      16.859  21.958   8.779  0.00  0.00     0.065 A 
ATOM     23  C   UNL d   1      15.935  22.298   8.953  0.00  0.00     0.037 A 
ATOM     24  C   UNL d   1      15.262  22.320   8.214  0.00  0.00     0.017 A 
BRANCH  22  25
ATOM     25  O   UNL d   1      17.532  21.936   9.518  0.00  0.00    -0.361 OA
ATOM     26  H   UNL d   1      17.590  21.429   9.870  0.00  0.00     0.217 HD
ENDBRANCH  22  25
ENDBRANCH  13  19
BRANCH  17  27
ATOM     27  O   UNL d   1      12.223  21.268   4.144  0.00  0.00    -0.360 OA
ATOM     28  H   UNL d   1      12.258  20.975   3.599  0.00  0.00     0.217 HD
ENDBRANCH  17  27
ENDBRANCH   7   8
ENDBRANCH   5   7
BRANCH   2  29
ATOM     29  O   UNL d   1      12.748  25.752   1.788  0.00  0.00    -0.346 OA
BRANCH  29  30
ATOM     30  C   UNL d   1      12.174  25.326   1.088  0.00  0.00     0.292 A 
ATOM     31  O   UNL d   1      12.501  24.519   0.596  0.00  0.00    -0.351 OA
ATOM     32  C   UNL d   1      11.926  24.094  -0.103  0.00  0.00     0.152 A 
ATOM     33  C   UNL d   1      11.026  24.476  -0.311  0.00  0.00     0.178 A 
ATOM     34  C   UNL d   1      12.253  23.287  -0.595  0.00  0.00     0.042 C 
ATOM     35  C   UNL d   1      10.699  25.283   0.181  0.00  0.00     0.183 A 
ATOM     36  C   UNL d   1      11.274  25.708   0.881  0.00  0.00     0.204 A 
BRANCH  33  37
ATOM     37  O   UNL d   1      10.452  24.051  -1.011  0.00  0.00    -0.390 OA
ATOM     38  H   UNL d   1      10.288  23.455  -0.958  0.00  0.00     0.210 HD
ENDBRANCH  33  37
BRANCH  35  39
ATOM     39  O   UNL d   1       9.799  25.665  -0.026  0.00  0.00    -0.390 OA
ATOM     40  H   UNL d   1       9.698  26.273   0.038  0.00  0.00     0.210 HD
ENDBRANCH  35  39
BRANCH  36  41
ATOM     41  O   UNL d   1      10.947  26.515   1.373  0.00  0.00    -0.388 OA
ATOM     42  H   UNL d   1      10.635  26.449   1.905  0.00  0.00     0.210 HD
ENDBRANCH  36  41
ENDBRANCH  29  30
ENDBRANCH   2  29
BRANCH   6  43
ATOM     43  C   UNL d   1      16.490  24.459   2.361  0.00  0.00     0.198 C 
BRANCH  43  44
ATOM     44  O   UNL d   1      16.679  23.478   2.400  0.00  0.00    -0.398 OA
ATOM     45  H   UNL d   1      17.201  23.273   2.666  0.00  0.00     0.209 HD
ENDBRANCH  43  44
ENDBRANCH   6  43
BRANCH   3  46
ATOM     46  O   UNL d   1      14.193  26.270   0.506  0.00  0.00    -0.390 OA
ATOM     47  H   UNL d   1      13.803  26.070   0.068  0.00  0.00     0.210 HD
ENDBRANCH   3  46
BRANCH   4  48
ATOM     48  O   UNL d   1      16.064  25.624   0.793  0.00  0.00    -0.390 OA
ATOM     49  H   UNL d   1      16.029  26.162   0.487  0.00  0.00     0.210 HD
ENDBRANCH   4  48
TORSDOF 14
ENDMDL
MODEL 3
REMARK VINA RESULT:    -8.521      3.178      6.214
REMARK INTER + INTRA:          -3.653
REMARK INTER:                 -13.977
REMARK INTRA:                  10.324
REMARK UNBOUND:                 9.850
REMARK  14 active torsions:
REMARK  status: ('A' for Active; 'I' for Inactive)
REMARK    1  A    between atoms: C_15  and  O_1 
REMARK    2  A    between atoms: C_18  and  O_1 
REMARK    3  A    between atoms: C_16  and  O_4 
REMARK    4  A    between atoms: C_20  and  O_5 
REMARK    5  A    between atoms: O_5  and  C_27 
REMARK    6  A    between atoms: C_17  and  O_6 
REMARK    7  A    between atoms: C_19  and  O_7 
REMARK    8  A    between atoms: C_22  and  O_8 
REMARK    9  A    between atoms: C_23  and  O_9 
REMARK   10  A    between atoms: O_10  and  C_25 
REMARK   11  A    between atoms: O_12  and  C_31 
REMARK   12  A    between atoms: O_14  and  C_41 
REMARK   13  A    between atoms: C_21  and  C_25 
REMARK   14  A    between atoms: C_34  and  C_36 
ROOT
ATOM      1  O   UNL d   1      11.197  24.143   0.161  0.00  0.00    -0.348 OA
ATOM      2  C   UNL d   1      10.385  25.646  -0.123  0.00  0.00     0.211 A 
ATOM      3  C   UNL d   1      10.278  25.406  -1.088  0.00  0.00     0.183 A 
ATOM      4  C   UNL d   1      10.631  24.535  -1.429  0.00  0.00     0.180 A 
ATOM      5  C   UNL d   1      10.844  25.015   0.501  0.00  0.00     0.298 A 
ATOM      6  C   UNL d   1      11.091  23.903  -0.804  0.00  0.00     0.179 A 
ENDROOT
BRANCH   5   7
ATOM      7  O   UNL d   1      10.951  25.254   1.466  0.00  0.00    -0.318 OA
BRANCH   7   8
ATOM      8  C   UNL d   1      11.838  25.143   1.914  0.00  0.00     0.077 A 
ATOM      9  C   UNL d   1      11.959  24.438   2.671  0.00  0.00     0.075 A 
ATOM     10  C   UNL d   1      12.887  24.330   3.131  0.00  0.00     0.095 A 
ATOM     11  O   UNL d   1      12.995  23.651   3.857  0.00  0.00    -0.309 OA
ATOM     12  C   UNL d   1      13.665  24.895   2.855  0.00  0.00     0.081 A 
ATOM     13  C   UNL d   1      13.881  23.537   4.307  0.00  0.00     0.090 A 
ATOM     14  C   UNL d   1      14.658  24.102   4.031  0.00  0.00     0.094 A 
ATOM     15  C   UNL d   1      14.550  24.781   3.305  0.00  0.00     0.190 A 
ATOM     16  O   UNL d   1      15.328  25.346   3.029  0.00  0.00    -0.287 OA
ATOM     17  C   UNL d   1      13.567  25.607   2.100  0.00  0.00     0.085 A 
ATOM     18  C   UNL d   1      12.648  25.731   1.627  0.00  0.00     0.074 A 
BRANCH  13  19
ATOM     19  C   UNL d   1      13.989  22.858   5.033  0.00  0.00    -0.002 A 
ATOM     20  C   UNL d   1      14.507  23.085   5.857  0.00  0.00     0.017 A 
ATOM     21  C   UNL d   1      14.615  22.405   6.583  0.00  0.00     0.037 A 
ATOM     22  C   UNL d   1      14.205  21.499   6.485  0.00  0.00     0.065 A 
ATOM     23  C   UNL d   1      13.686  21.272   5.660  0.00  0.00     0.037 A 
ATOM     24  C   UNL d   1      13.578  21.951   4.934  0.00  0.00     0.017 A 
BRANCH  22  25
ATOM     25  O   UNL d   1      14.313  20.820   7.211  0.00  0.00    -0.361 OA
ATOM     26  H   UNL d   1      14.159  20.963   7.794  0.00  0.00     0.217 HD
ENDBRANCH  22  25
ENDBRANCH  13  19
BRANCH  17  27
ATOM     27  O   UNL d   1      14.352  26.166   1.833  0.00  0.00    -0.360 OA
ATOM     28  H   UNL d   1      14.890  25.895   1.685  0.00  0.00     0.217 HD
ENDBRANCH  17  27
ENDBRANCH   7   8
ENDBRANCH   5   7
BRANCH   2  29
ATOM     29  O   UNL d   1      10.032  26.518   0.217  0.00  0.00    -0.346 OA
BRANCH  29  30
ATOM     30  C   UNL d   1       9.094  26.577   0.561  0.00  0.00     0.292 A 
ATOM     31  O   UNL d   1       8.408  25.916   0.259  0.00  0.00    -0.351 OA
ATOM     32  C   UNL d   1       7.471  25.976   0.602  0.00  0.00     0.152 A 
ATOM     33  C   UNL d   1       7.220  26.697   1.247  0.00  0.00     0.178 A 
ATOM     34  C   UNL d   1       6.784  25.314   0.300  0.00  0.00     0.042 C 
ATOM     35  C   UNL d   1       7.906  27.359   1.549  0.00  0.00     0.183 A 
ATOM     36  C   UNL d   1       8.843  27.299   1.206  0.00  0.00     0.204 A 
BRANCH  33  37
ATOM     37  O   UNL d   1       6.283  26.757   1.591  0.00  0.00    -0.390 OA
ATOM     38  H   UNL d   1       5.931  27.247   1.448  0.00  0.00     0.210 HD
ENDBRANCH  33  37
BRANCH  35  39
ATOM     39  O   UNL d   1       7.655  28.080   2.195  0.00  0.00    -0.390 OA
ATOM     40  H   UNL d   1       7.069  28.130   2.392  0.00  0.00     0.210 HD
ENDBRANCH  35  39
BRANCH  36  41
ATOM     41  O   UNL d   1       9.530  27.960   1.508  0.00  0.00    -0.388 OA
ATOM     42  H   UNL d   1      10.133  27.830   1.449  0.00  0.00     0.210 HD
ENDBRANCH  36  41
ENDBRANCH  29  30
ENDBRANCH   2  29
BRANCH   6  43
ATOM     43  C   UNL d   1      11.444  23.032  -1.145  0.00  0.00     0.198 C 
BRANCH  43  44
ATOM     44  O   UNL d   1      11.437  22.225  -0.554  0.00  0.00    -0.398 OA
ATOM     45  H   UNL d   1      11.013  22.173  -0.105  0.00  0.00     0.209 HD
ENDBRANCH  43  44
ENDBRANCH   6  43
BRANCH   3  46
ATOM     46  O   UNL d   1       9.818  26.038  -1.713  0.00  0.00    -0.390 OA
ATOM     47  H   UNL d   1       9.955  26.643  -1.698  0.00  0.00     0.210 HD
ENDBRANCH   3  46
BRANCH   4  48
ATOM     48  O   UNL d   1      10.525  24.295  -2.394  0.00  0.00    -0.390 OA
ATOM     49  H   UNL d   1      10.258  23.758  -2.552  0.00  0.00     0.210 HD
ENDBRANCH   4  48
TORSDOF 14
ENDMDL
MODEL 4
REMARK VINA RESULT:    -8.409      2.165      6.901
REMARK INTER + INTRA:          -3.475
REMARK INTER:                 -13.835
REMARK INTRA:                  10.360
REMARK UNBOUND:                 9.850
REMARK  14 active torsions:
REMARK  status: ('A' for Active; 'I' for Inactive)
REMARK    1  A    between atoms: C_15  and  O_1 
REMARK    2  A    between atoms: C_18  and  O_1 
REMARK    3  A    between atoms: C_16  and  O_4 
REMARK    4  A    between atoms: C_20  and  O_5 
REMARK    5  A    between atoms: O_5  and  C_27 
REMARK    6  A    between atoms: C_17  and  O_6 
REMARK    7  A    between atoms: C_19  and  O_7 
REMARK    8  A    between atoms: C_22  and  O_8 
REMARK    9  A    between atoms: C_23  and  O_9 
REMARK   10  A    between atoms: O_10  and  C_25 
REMARK   11  A    between atoms: O_12  and  C_31 
REMARK   12  A    between atoms: O_14  and  C_41 
REMARK   13  A    between atoms: C_21  and  C_25 
REMARK   14  A    between atoms: C_34  and  C_36 
ROOT
ATOM      1  O   UNL d   1      13.544  23.466   4.403  0.00  0.00    -0.348 OA
ATOM      2  C   UNL d   1      14.676  22.339   5.071  0.00  0.00     0.211 A 
ATOM      3  C   UNL d   1      13.965  21.636   5.091  0.00  0.00     0.183 A 
ATOM      4  C   UNL d   1      13.043  21.849   4.766  0.00  0.00     0.180 A 
ATOM      5  C   UNL d   1      14.466  23.254   4.727  0.00  0.00     0.298 A 
ATOM      6  C   UNL d   1      12.833  22.764   4.422  0.00  0.00     0.179 A 
ENDROOT
BRANCH   5   7
ATOM      7  O   UNL d   1      15.177  23.956   4.708  0.00  0.00    -0.318 OA
BRANCH   7   8
ATOM      8  C   UNL d   1      15.395  24.424   3.851  0.00  0.00     0.077 A 
ATOM      9  C   UNL d   1      15.947  23.938   3.114  0.00  0.00     0.075 A 
ATOM     10  C   UNL d   1      16.168  24.434   2.226  0.00  0.00     0.095 A 
ATOM     11  O   UNL d   1      16.699  23.961   1.522  0.00  0.00    -0.309 OA
ATOM     12  C   UNL d   1      15.858  25.372   2.070  0.00  0.00     0.081 A 
ATOM     13  C   UNL d   1      16.919  24.425   0.664  0.00  0.00     0.090 A 
ATOM     14  C   UNL d   1      16.608  25.363   0.510  0.00  0.00     0.094 A 
ATOM     15  C   UNL d   1      16.077  25.837   1.212  0.00  0.00     0.190 A 
ATOM     16  O   UNL d   1      15.766  26.774   1.058  0.00  0.00    -0.287 OA
ATOM     17  C   UNL d   1      15.304  25.878   2.794  0.00  0.00     0.085 A 
ATOM     18  C   UNL d   1      15.072  25.401   3.690  0.00  0.00     0.074 A 
BRANCH  13  19
ATOM     19  C   UNL d   1      17.449  23.952  -0.040  0.00  0.00    -0.002 A 
ATOM     20  C   UNL d   1      18.433  24.113  -0.117  0.00  0.00     0.017 A 
ATOM     21  C   UNL d   1      18.963  23.640  -0.821  0.00  0.00     0.037 A 
ATOM     22  C   UNL d   1      18.509  23.006  -1.447  0.00  0.00     0.065 A 
ATOM     23  C   UNL d   1      17.526  22.844  -1.369  0.00  0.00     0.037 A 
ATOM     24  C   UNL d   1      16.995  23.318  -0.665  0.00  0.00     0.017 A 
BRANCH  22  25
ATOM     25  O   UNL d   1      19.040  22.532  -2.150  0.00  0.00    -0.361 OA
ATOM     26  H   UNL d   1      19.157  21.926  -2.094  0.00  0.00     0.217 HD
ENDBRANCH  22  25
ENDBRANCH  13  19
BRANCH  17  27
ATOM     27  O   UNL d   1      14.998  26.816   2.628  0.00  0.00    -0.360 OA
ATOM     28  H   UNL d   1      15.255  27.149   2.172  0.00  0.00     0.217 HD
ENDBRANCH  17  27
ENDBRANCH   7   8
ENDBRANCH   5   7
BRANCH   2  29
ATOM     29  O   UNL d   1      15.598  22.126   5.396  0.00  0.00    -0.346 OA
BRANCH  29  30
ATOM     30  C   UNL d   1      15.778  22.049   6.376  0.00  0.00     0.292 A 
ATOM     31  O   UNL d   1      15.096  22.365   7.036  0.00  0.00    -0.351 OA
ATOM     32  C   UNL d   1      15.275  22.288   8.017  0.00  0.00     0.152 A 
ATOM     33  C   UNL d   1      16.136  21.894   8.338  0.00  0.00     0.178 A 
ATOM     34  C   UNL d   1      14.594  22.605   8.676  0.00  0.00     0.042 C 
ATOM     35  C   UNL d   1      16.818  21.577   7.678  0.00  0.00     0.183 A 
ATOM     36  C   UNL d   1      16.639  21.655   6.698  0.00  0.00     0.204 A 
BRANCH  33  37
ATOM     37  O   UNL d   1      16.316  21.817   9.318  0.00  0.00    -0.390 OA
ATOM     38  H   UNL d   1      16.619  22.269   9.615  0.00  0.00     0.210 HD
ENDBRANCH  33  37
BRANCH  35  39
ATOM     39  O   UNL d   1      17.679  21.183   7.999  0.00  0.00    -0.390 OA
ATOM     40  H   UNL d   1      17.840  20.609   7.829  0.00  0.00     0.210 HD
ENDBRANCH  35  39
BRANCH  36  41
ATOM     41  O   UNL d   1      17.320  21.338   6.038  0.00  0.00    -0.388 OA
ATOM     42  H   UNL d   1      17.465  20.736   6.007  0.00  0.00     0.210 HD
ENDBRANCH  36  41
ENDBRANCH  29  30
ENDBRANCH   2  29
BRANCH   6  43
ATOM     43  C   UNL d   1      11.911  22.977   4.098  0.00  0.00     0.198 C 
BRANCH  43  44
ATOM     44  O   UNL d   1      11.667  23.919   3.868  0.00  0.00    -0.398 OA
ATOM     45  H   UNL d   1      11.079  24.108   3.921  0.00  0.00     0.209 HD
ENDBRANCH  43  44
ENDBRANCH   6  43
BRANCH   3  46
ATOM     46  O   UNL d   1      14.175  20.721   5.434  0.00  0.00    -0.390 OA
ATOM     47  H   UNL d   1      14.180  20.613   6.045  0.00  0.00     0.210 HD
ENDBRANCH   3  46
BRANCH   4  48
ATOM     48  O   UNL d   1      12.332  21.146   4.786  0.00  0.00    -0.390 OA
ATOM     49  H   UNL d   1      12.212  20.841   5.312  0.00  0.00     0.210 HD
ENDBRANCH   4  48
TORSDOF 14
ENDMDL
MODEL 5
REMARK VINA RESULT:    -8.349      2.275      4.719
REMARK INTER + INTRA:          -3.380
REMARK INTER:                 -14.690
REMARK INTRA:                  11.310
REMARK UNBOUND:                 9.850
REMARK  14 active torsions:
REMARK  status: ('A' for Active; 'I' for Inactive)
REMARK    1  A    between atoms: C_15  and  O_1 
REMARK    2  A    between atoms: C_18  and  O_1 
REMARK    3  A    between atoms: C_16  and  O_4 
REMARK    4  A    between atoms: C_20  and  O_5 
REMARK    5  A    between atoms: O_5  and  C_27 
REMARK    6  A    between atoms: C_17  and  O_6 
REMARK    7  A    between atoms: C_19  and  O_7 
REMARK    8  A    between atoms: C_22  and  O_8 
REMARK    9  A    between atoms: C_23  and  O_9 
REMARK   10  A    between atoms: O_10  and  C_25 
REMARK   11  A    between atoms: O_12  and  C_31 
REMARK   12  A    between atoms: O_14  and  C_41 
REMARK   13  A    between atoms: C_21  and  C_25 
REMARK   14  A    between atoms: C_34  and  C_36 
ROOT
ATOM      1  O   UNL d   1      13.264  25.274   2.424  0.00  0.00    -0.348 OA
ATOM      2  C   UNL d   1      12.238  25.018   1.052  0.00  0.00     0.211 A 
ATOM      3  C   UNL d   1      12.926  25.438   0.459  0.00  0.00     0.183 A 
ATOM      4  C   UNL d   1      13.783  25.776   0.849  0.00  0.00     0.180 A 
ATOM      5  C   UNL d   1      12.407  24.936   2.034  0.00  0.00     0.298 A 
ATOM      6  C   UNL d   1      13.951  25.694   1.832  0.00  0.00     0.179 A 
ENDROOT
BRANCH   5   7
ATOM      7  O   UNL d   1      11.719  24.517   2.626  0.00  0.00    -0.318 OA
BRANCH   7   8
ATOM      8  C   UNL d   1      11.936  23.679   3.128  0.00  0.00     0.077 A 
ATOM      9  C   UNL d   1      12.711  23.671   3.825  0.00  0.00     0.075 A 
ATOM     10  C   UNL d   1      12.928  22.793   4.342  0.00  0.00     0.095 A 
ATOM     11  O   UNL d   1      13.673  22.793   5.009  0.00  0.00    -0.309 OA
ATOM     12  C   UNL d   1      12.402  21.958   4.179  0.00  0.00     0.081 A 
ATOM     13  C   UNL d   1      13.893  21.957   5.513  0.00  0.00     0.090 A 
ATOM     14  C   UNL d   1      13.367  21.123   5.350  0.00  0.00     0.094 A 
ATOM     15  C   UNL d   1      12.622  21.123   4.684  0.00  0.00     0.190 A 
ATOM     16  O   UNL d   1      12.096  20.288   4.521  0.00  0.00    -0.287 OA
ATOM     17  C   UNL d   1      11.623  21.944   3.488  0.00  0.00     0.085 A 
ATOM     18  C   UNL d   1      11.389  22.809   2.959  0.00  0.00     0.074 A 
BRANCH  13  19
ATOM     19  C   UNL d   1      14.638  21.957   6.180  0.00  0.00    -0.002 A 
ATOM     20  C   UNL d   1      14.434  21.959   7.159  0.00  0.00     0.017 A 
ATOM     21  C   UNL d   1      15.179  21.959   7.825  0.00  0.00     0.037 A 
ATOM     22  C   UNL d   1      16.129  21.955   7.513  0.00  0.00     0.065 A 
ATOM     23  C   UNL d   1      16.334  21.952   6.534  0.00  0.00     0.037 A 
ATOM     24  C   UNL d   1      15.588  21.953   5.867  0.00  0.00     0.017 A 
BRANCH  22  25
ATOM     25  O   UNL d   1      16.875  21.954   8.180  0.00  0.00    -0.361 OA
ATOM     26  H   UNL d   1      16.935  21.482   8.576  0.00  0.00     0.217 HD
ENDBRANCH  22  25
ENDBRANCH  13  19
BRANCH  17  27
ATOM     27  O   UNL d   1      11.104  21.103   3.334  0.00  0.00    -0.360 OA
ATOM     28  H   UNL d   1      10.496  21.087   3.456  0.00  0.00     0.217 HD
ENDBRANCH  17  27
ENDBRANCH   7   8
ENDBRANCH   5   7
BRANCH   2  29
ATOM     29  O   UNL d   1      11.382  24.681   0.662  0.00  0.00    -0.346 OA
BRANCH  29  30
ATOM     30  C   UNL d   1      10.629  25.315   0.483  0.00  0.00     0.292 A 
ATOM     31  O   UNL d   1      10.419  26.039   1.139  0.00  0.00    -0.351 OA
ATOM     32  C   UNL d   1       9.667  26.673   0.960  0.00  0.00     0.152 A 
ATOM     33  C   UNL d   1       9.125  26.583   0.125  0.00  0.00     0.178 A 
ATOM     34  C   UNL d   1       9.457  27.398   1.617  0.00  0.00     0.042 C 
ATOM     35  C   UNL d   1       9.335  25.858  -0.531  0.00  0.00     0.183 A 
ATOM     36  C   UNL d   1      10.087  25.224  -0.352  0.00  0.00     0.204 A 
BRANCH  33  37
ATOM     37  O   UNL d   1       8.372  27.217  -0.054  0.00  0.00    -0.390 OA
ATOM     38  H   UNL d   1       8.481  27.827  -0.081  0.00  0.00     0.210 HD
ENDBRANCH  33  37
BRANCH  35  39
ATOM     39  O   UNL d   1       8.792  25.768  -1.367  0.00  0.00    -0.390 OA
ATOM     40  H   UNL d   1       8.833  26.198  -1.811  0.00  0.00     0.210 HD
ENDBRANCH  35  39
BRANCH  36  41
ATOM     41  O   UNL d   1      10.297  24.500  -1.009  0.00  0.00    -0.388 OA
ATOM     42  H   UNL d   1      10.854  24.227  -1.003  0.00  0.00     0.210 HD
ENDBRANCH  36  41
ENDBRANCH  29  30
ENDBRANCH   2  29
BRANCH   6  43
ATOM     43  C   UNL d   1      14.808  26.032   2.221  0.00  0.00     0.198 C 
BRANCH  43  44
ATOM     44  O   UNL d   1      14.790  26.705   2.961  0.00  0.00    -0.398 OA
ATOM     45  H   UNL d   1      14.289  27.061   3.044  0.00  0.00     0.209 HD
ENDBRANCH  43  44
ENDBRANCH   6  43
BRANCH   3  46
ATOM     46  O   UNL d   1      12.757  25.520  -0.523  0.00  0.00    -0.390 OA
ATOM     47  H   UNL d   1      13.162  25.283  -0.928  0.00  0.00     0.210 HD
ENDBRANCH   3  46
BRANCH   4  48
ATOM     48  O   UNL d   1      14.470  26.196   0.257  0.00  0.00    -0.390 OA
ATOM     49  H   UNL d   1      14.976  25.877   0.095  0.00  0.00     0.210 HD
ENDBRANCH   4  48
TORSDOF 14
ENDMDL
