MODEL 1
REMARK VINA RESULT:    -7.850      0.000      0.000
REMARK INTER + INTRA:          -8.975
REMARK INTER:                  -8.984
REMARK INTRA:                   0.008
REMARK UNBOUND:                 0.022
REMARK  4 active torsions:
REMARK  status: ('A' for Active; 'I' for Inactive)
REMARK    1  A    between atoms: O_1  and  C_13 
REMARK    2  A    between atoms: O_4  and  C_16 
REMARK    3  A    between atoms: O_5  and  C_18 
REMARK    4  A    between atoms: C_14  and  C_18 
ROOT
ATOM      1  O   UNL d   1      16.765 -12.087  -6.839  0.00  0.00    -0.286 OA
ATOM      2  O   UNL d   1      15.138  -9.673  -9.582  0.00  0.00    -0.287 OA
ATOM      3  C   UNL d   1      15.919 -11.163  -9.169  0.00  0.00     0.032 A 
ATOM      4  C   UNL d   1      16.326 -11.766  -8.483  0.00  0.00     0.062 A 
ATOM      5  C   UNL d   1      15.984 -10.597  -7.252  0.00  0.00     0.062 A 
ATOM      6  C   UNL d   1      15.578  -9.994  -7.938  0.00  0.00     0.032 A 
ATOM      7  C   UNL d   1      16.359 -11.484  -7.524  0.00  0.00     0.199 A 
ATOM      8  C   UNL d   1      15.545 -10.276  -8.896  0.00  0.00     0.194 A 
ATOM      9  C   UNL d   1      15.878 -11.443 -10.171  0.00  0.00     0.026 A 
ATOM     10  C   UNL d   1      16.720 -12.692  -8.752  0.00  0.00     0.081 A 
ATOM     11  C   UNL d   1      16.266 -12.365 -10.463  0.00  0.00    -0.031 A 
ATOM     12  C   UNL d   1      16.689 -12.993  -9.749  0.00  0.00     0.046 A 
ATOM     13  C   UNL d   1      16.025 -10.316  -6.250  0.00  0.00     0.080 A 
ATOM     14  C   UNL d   1      15.184  -9.067  -7.669  0.00  0.00     0.017 A 
ATOM     15  C   UNL d   1      15.637  -9.394  -5.958  0.00  0.00     0.037 A 
ATOM     16  C   UNL d   1      15.214  -8.766  -6.672  0.00  0.00     0.004 A 
ENDROOT
BRANCH  11  17
ATOM     17  C   UNL d   1      16.232 -12.644 -11.423  0.00  0.00     0.203 C 
BRANCH  17  18
ATOM     18  O   UNL d   1      15.364 -12.619 -11.919  0.00  0.00    -0.396 OA
ATOM     19  H   UNL d   1      14.855 -12.395 -11.644  0.00  0.00     0.209 HD
ENDBRANCH  17  18
ENDBRANCH  11  17
BRANCH  10  20
ATOM     20  O   UNL d   1      17.124 -13.287  -8.058  0.00  0.00    -0.360 OA
ATOM     21  H   UNL d   1      16.930 -13.874  -8.003  0.00  0.00     0.217 HD
ENDBRANCH  10  20
BRANCH  13  22
ATOM     22  O   UNL d   1      16.434 -10.928  -5.573  0.00  0.00    -0.360 OA
ATOM     23  H   UNL d   1      16.150 -11.023  -5.029  0.00  0.00     0.217 HD
ENDBRANCH  13  22
TORSDOF 4
ENDMDL
MODEL 2
REMARK VINA RESULT:    -7.561      2.514      4.299
REMARK INTER + INTRA:          -8.644
REMARK INTER:                  -8.638
REMARK INTRA:                  -0.006
REMARK UNBOUND:                 0.022
REMARK  4 active torsions:
REMARK  status: ('A' for Active; 'I' for Inactive)
REMARK    1  A    between atoms: O_1  and  C_13 
REMARK    2  A    between atoms: O_4  and  C_16 
REMARK    3  A    between atoms: O_5  and  C_18 
REMARK    4  A    between atoms: C_14  and  C_18 
ROOT
ATOM      1  O   UNL d   1      15.634  -7.946  -7.155  0.00  0.00    -0.286 OA
ATOM      2  O   UNL d   1      18.291  -9.452  -4.572  0.00  0.00    -0.287 OA
ATOM      3  C   UNL d   1      17.095  -9.688  -5.801  0.00  0.00     0.032 A 
ATOM      4  C   UNL d   1      16.430  -9.312  -6.447  0.00  0.00     0.062 A 
ATOM      5  C   UNL d   1      16.831  -7.709  -5.925  0.00  0.00     0.062 A 
ATOM      6  C   UNL d   1      17.495  -8.086  -5.279  0.00  0.00     0.032 A 
ATOM      7  C   UNL d   1      16.298  -8.322  -6.509  0.00  0.00     0.199 A 
ATOM      8  C   UNL d   1      17.627  -9.075  -5.217  0.00  0.00     0.194 A 
ATOM      9  C   UNL d   1      17.243 -10.716  -5.725  0.00  0.00     0.026 A 
ATOM     10  C   UNL d   1      15.869  -9.938  -7.061  0.00  0.00     0.081 A 
ATOM     11  C   UNL d   1      16.692 -11.361  -6.330  0.00  0.00    -0.031 A 
ATOM     12  C   UNL d   1      16.001 -10.969  -7.002  0.00  0.00     0.046 A 
ATOM     13  C   UNL d   1      16.683  -6.681  -6.001  0.00  0.00     0.080 A 
ATOM     14  C   UNL d   1      18.057  -7.460  -4.665  0.00  0.00     0.017 A 
ATOM     15  C   UNL d   1      17.234  -6.037  -5.396  0.00  0.00     0.037 A 
ATOM     16  C   UNL d   1      17.925  -6.429  -4.723  0.00  0.00     0.004 A 
ENDROOT
BRANCH  11  17
ATOM     17  C   UNL d   1      16.828 -12.350  -6.265  0.00  0.00     0.203 C 
BRANCH  17  18
ATOM     18  O   UNL d   1      16.237 -12.897  -5.671  0.00  0.00    -0.396 OA
ATOM     19  H   UNL d   1      15.786 -13.244  -5.918  0.00  0.00     0.209 HD
ENDBRANCH  17  18
ENDBRANCH  11  17
BRANCH  10  20
ATOM     20  O   UNL d   1      15.207  -9.550  -7.703  0.00  0.00    -0.360 OA
ATOM     21  H   UNL d   1      15.214  -8.942  -7.825  0.00  0.00     0.217 HD
ENDBRANCH  10  20
BRANCH  13  22
ATOM     22  O   UNL d   1      16.016  -6.316  -6.650  0.00  0.00    -0.360 OA
ATOM     23  H   UNL d   1      16.185  -5.877  -7.054  0.00  0.00     0.217 HD
ENDBRANCH  13  22
TORSDOF 4
ENDMDL
MODEL 3
REMARK VINA RESULT:    -7.440      1.041      2.390
REMARK INTER + INTRA:          -8.505
REMARK INTER:                  -8.561
REMARK INTRA:                   0.056
REMARK UNBOUND:                 0.022
REMARK  4 active torsions:
REMARK  status: ('A' for Active; 'I' for Inactive)
REMARK    1  A    between atoms: O_1  and  C_13 
REMARK    2  A    between atoms: O_4  and  C_16 
REMARK    3  A    between atoms: O_5  and  C_18 
REMARK    4  A    between atoms: C_14  and  C_18 
ROOT
ATOM      1  O   UNL d   1      14.963 -10.146  -8.874  0.00  0.00    -0.286 OA
ATOM      2  O   UNL d   1      17.742 -12.228  -6.887  0.00  0.00    -0.287 OA
ATOM      3  C   UNL d   1      16.834 -11.937  -8.333  0.00  0.00     0.032 A 
ATOM      4  C   UNL d   1      16.140 -11.417  -8.830  0.00  0.00     0.062 A 
ATOM      5  C   UNL d   1      15.871 -10.437  -7.428  0.00  0.00     0.062 A 
ATOM      6  C   UNL d   1      16.566 -10.957  -6.931  0.00  0.00     0.032 A 
ATOM      7  C   UNL d   1      15.658 -10.667  -8.377  0.00  0.00     0.199 A 
ATOM      8  C   UNL d   1      17.047 -11.707  -7.384  0.00  0.00     0.194 A 
ATOM      9  C   UNL d   1      17.345 -12.721  -8.792  0.00  0.00     0.026 A 
ATOM     10  C   UNL d   1      15.908 -11.645  -9.819  0.00  0.00     0.081 A 
ATOM     11  C   UNL d   1      17.129 -12.967  -9.781  0.00  0.00    -0.031 A 
ATOM     12  C   UNL d   1      16.405 -12.425 -10.298  0.00  0.00     0.046 A 
ATOM     13  C   UNL d   1      15.361  -9.653  -6.969  0.00  0.00     0.080 A 
ATOM     14  C   UNL d   1      16.798 -10.730  -5.941  0.00  0.00     0.017 A 
ATOM     15  C   UNL d   1      15.578  -9.408  -5.980  0.00  0.00     0.037 A 
ATOM     16  C   UNL d   1      16.301  -9.949  -5.463  0.00  0.00     0.004 A 
ENDROOT
BRANCH  11  17
ATOM     17  C   UNL d   1      17.613 -13.718 -10.230  0.00  0.00     0.203 C 
BRANCH  17  18
ATOM     18  O   UNL d   1      18.370 -14.174  -9.762  0.00  0.00    -0.396 OA
ATOM     19  H   UNL d   1      18.864 -13.846  -9.579  0.00  0.00     0.209 HD
ENDBRANCH  17  18
ENDBRANCH  11  17
BRANCH  10  20
ATOM     20  O   UNL d   1      15.211 -11.118 -10.306  0.00  0.00    -0.360 OA
ATOM     21  H   UNL d   1      14.849 -11.397 -10.726  0.00  0.00     0.217 HD
ENDBRANCH  10  20
BRANCH  13  22
ATOM     22  O   UNL d   1      14.668  -9.140  -7.476  0.00  0.00    -0.360 OA
ATOM     23  H   UNL d   1      14.519  -9.308  -8.054  0.00  0.00     0.217 HD
ENDBRANCH  13  22
TORSDOF 4
ENDMDL
MODEL 4
REMARK VINA RESULT:    -7.419      1.526      2.725
REMARK INTER + INTRA:          -8.481
REMARK INTER:                  -8.488
REMARK INTRA:                   0.007
REMARK UNBOUND:                 0.022
REMARK  4 active torsions:
REMARK  status: ('A' for Active; 'I' for Inactive)
REMARK    1  A    between atoms: O_1  and  C_13 
REMARK    2  A    between atoms: O_4  and  C_16 
REMARK    3  A    between atoms: O_5  and  C_18 
REMARK    4  A    between atoms: C_14  and  C_18 
ROOT
ATOM      1  O   UNL d   1      15.438  -9.951  -6.174  0.00  0.00    -0.286 OA
ATOM      2  O   UNL d   1      18.062 -12.495  -7.800  0.00  0.00    -0.287 OA
ATOM      3  C   UNL d   1      16.588 -11.591  -7.903  0.00  0.00     0.032 A 
ATOM      4  C   UNL d   1      15.932 -10.955  -7.496  0.00  0.00     0.062 A 
ATOM      5  C   UNL d   1      16.911 -10.855  -6.071  0.00  0.00     0.062 A 
ATOM      6  C   UNL d   1      17.567 -11.491  -6.478  0.00  0.00     0.032 A 
ATOM      7  C   UNL d   1      16.094 -10.587  -6.581  0.00  0.00     0.199 A 
ATOM      8  C   UNL d   1      17.406 -11.859  -7.393  0.00  0.00     0.194 A 
ATOM      9  C   UNL d   1      16.434 -11.983  -8.856  0.00  0.00     0.026 A 
ATOM     10  C   UNL d   1      15.076 -10.667  -8.015  0.00  0.00     0.081 A 
ATOM     11  C   UNL d   1      15.584 -11.708  -9.392  0.00  0.00    -0.031 A 
ATOM     12  C   UNL d   1      14.901 -11.046  -8.969  0.00  0.00     0.046 A 
ATOM     13  C   UNL d   1      17.067 -10.464  -5.119  0.00  0.00     0.080 A 
ATOM     14  C   UNL d   1      18.424 -11.780  -5.960  0.00  0.00     0.017 A 
ATOM     15  C   UNL d   1      17.916 -10.739  -4.582  0.00  0.00     0.037 A 
ATOM     16  C   UNL d   1      18.599 -11.401  -5.005  0.00  0.00     0.004 A 
ENDROOT
BRANCH  11  17
ATOM     17  C   UNL d   1      15.426 -12.078 -10.308  0.00  0.00     0.203 C 
BRANCH  17  18
ATOM     18  O   UNL d   1      14.722 -12.775 -10.450  0.00  0.00    -0.396 OA
ATOM     19  H   UNL d   1      14.794 -13.342 -10.210  0.00  0.00     0.209 HD
ENDBRANCH  17  18
ENDBRANCH  11  17
BRANCH  10  20
ATOM     20  O   UNL d   1      14.427 -10.030  -7.599  0.00  0.00    -0.360 OA
ATOM     21  H   UNL d   1      14.047 -10.225  -7.148  0.00  0.00     0.217 HD
ENDBRANCH  10  20
BRANCH  13  22
ATOM     22  O   UNL d   1      16.404  -9.829  -4.722  0.00  0.00    -0.360 OA
ATOM     23  H   UNL d   1      16.592  -9.396  -4.320  0.00  0.00     0.217 HD
ENDBRANCH  13  22
TORSDOF 4
ENDMDL
MODEL 5
REMARK VINA RESULT:    -7.244     37.854     40.381
REMARK INTER + INTRA:          -8.281
REMARK INTER:                  -8.293
REMARK INTRA:                   0.012
REMARK UNBOUND:                 0.022
REMARK  4 active torsions:
REMARK  status: ('A' for Active; 'I' for Inactive)
REMARK    1  A    between atoms: O_1  and  C_13 
REMARK    2  A    between atoms: O_4  and  C_16 
REMARK    3  A    between atoms: O_5  and  C_18 
REMARK    4  A    between atoms: C_14  and  C_18 
ROOT
ATOM      1  O   UNL d   1     -11.447 -16.139 -38.440  0.00  0.00    -0.286 OA
ATOM      2  O   UNL d   1     -12.162 -18.854 -35.591  0.00  0.00    -0.287 OA
ATOM      3  C   UNL d   1     -11.630 -17.273 -36.056  0.00  0.00     0.032 A 
ATOM      4  C   UNL d   1     -11.451 -16.594 -36.769  0.00  0.00     0.062 A 
ATOM      5  C   UNL d   1     -11.979 -17.720 -37.974  0.00  0.00     0.062 A 
ATOM      6  C   UNL d   1     -12.158 -18.398 -37.262  0.00  0.00     0.032 A 
ATOM      7  C   UNL d   1     -11.626 -16.817 -37.728  0.00  0.00     0.199 A 
ATOM      8  C   UNL d   1     -11.983 -18.175 -36.303  0.00  0.00     0.194 A 
ATOM      9  C   UNL d   1     -11.452 -17.055 -35.053  0.00  0.00     0.026 A 
ATOM     10  C   UNL d   1     -11.082 -15.651 -36.527  0.00  0.00     0.081 A 
ATOM     11  C   UNL d   1     -11.084 -16.117 -34.789  0.00  0.00    -0.031 A 
ATOM     12  C   UNL d   1     -10.897 -15.411 -35.530  0.00  0.00     0.046 A 
ATOM     13  C   UNL d   1     -12.157 -17.938 -38.977  0.00  0.00     0.080 A 
ATOM     14  C   UNL d   1     -12.527 -19.343 -37.503  0.00  0.00     0.017 A 
ATOM     15  C   UNL d   1     -12.525 -18.876 -39.241  0.00  0.00     0.037 A 
ATOM     16  C   UNL d   1     -12.712 -19.582 -38.500  0.00  0.00     0.004 A 
ENDROOT
BRANCH  11  17
ATOM     17  C   UNL d   1     -10.910 -15.898 -33.828  0.00  0.00     0.203 C 
BRANCH  17  18
ATOM     18  O   UNL d   1     -11.463 -15.204 -33.367  0.00  0.00    -0.396 OA
ATOM     19  H   UNL d   1     -11.764 -14.775 -33.699  0.00  0.00     0.209 HD
ENDBRANCH  17  18
ENDBRANCH  11  17
BRANCH  10  20
ATOM     20  O   UNL d   1     -10.907 -14.980 -37.247  0.00  0.00    -0.360 OA
ATOM     21  H   UNL d   1     -10.324 -14.849 -37.414  0.00  0.00     0.217 HD
ENDBRANCH  10  20
BRANCH  13  22
ATOM     22  O   UNL d   1     -11.974 -17.252 -39.681  0.00  0.00    -0.360 OA
ATOM     23  H   UNL d   1     -12.123 -17.367 -40.272  0.00  0.00     0.217 HD
ENDBRANCH  13  22
TORSDOF 4
ENDMDL
