MODEL 1
REMARK VINA RESULT:    -5.889      0.000      0.000
REMARK INTER + INTRA:          -6.392
REMARK INTER:                  -7.369
REMARK INTRA:                   0.978
REMARK UNBOUND:                 1.046
REMARK  6 active torsions:
REMARK  status: ('A' for Active; 'I' for Inactive)
REMARK    1  A    between atoms: O_1  and  C_8 
REMARK    2  A    between atoms: O_2  and  C_9 
REMARK    3  A    between atoms: O_3  and  C_13 
REMARK    4  A    between atoms: C_5  and  C_11 
REMARK    5  A    between atoms: C_11  and  C_12 
REMARK    6  A    between atoms: C_12  and  C_13 
ROOT
ATOM      1  C   UNL d   1     -13.249 -12.573 -25.172  0.00  0.00    -0.033 A 
ATOM      2  C   UNL d   1     -13.860 -13.049 -25.805  0.00  0.00     0.050 A 
ATOM      3  C   UNL d   1     -12.656 -11.841 -25.506  0.00  0.00     0.014 A 
ATOM      4  C   UNL d   1     -13.879 -12.792 -26.771  0.00  0.00     0.099 A 
ATOM      5  C   UNL d   1     -13.285 -12.059 -27.105  0.00  0.00     0.098 A 
ATOM      6  C   UNL d   1     -12.674 -11.584 -26.472  0.00  0.00     0.040 A 
ENDROOT
BRANCH   1   7
ATOM      7  C   UNL d   1     -13.231 -12.831 -24.206  0.00  0.00     0.018 C 
BRANCH   7   8
ATOM      8  C   UNL d   1     -12.896 -13.733 -23.935  0.00  0.00     0.082 C 
BRANCH   8   9
ATOM      9  C   UNL d   1     -12.862 -13.984 -22.968  0.00  0.00     0.165 C 
ATOM     10  O   UNL d   1     -13.707 -14.045 -22.437  0.00  0.00    -0.647 OA
BRANCH   9  11
ATOM     11  O   UNL d   1     -11.983 -14.174 -22.531  0.00  0.00    -0.773 OA
ATOM     12  H   UNL d   1     -11.897 -14.706 -22.225  0.00  0.00     0.167 HD
ENDBRANCH   9  11
ENDBRANCH   8   9
ENDBRANCH   7   8
ENDBRANCH   1   7
BRANCH   4  13
ATOM     13  O   UNL d   1     -14.490 -13.267 -27.404  0.00  0.00    -0.358 OA
ATOM     14  H   UNL d   1     -14.255 -13.630 -27.848  0.00  0.00     0.217 HD
ENDBRANCH   4  13
BRANCH   5  15
ATOM     15  O   UNL d   1     -13.304 -11.802 -28.071  0.00  0.00    -0.358 OA
ATOM     16  H   UNL d   1     -12.772 -11.723 -28.381  0.00  0.00     0.217 HD
ENDBRANCH   5  15
TORSDOF 6
ENDMDL
MODEL 2
REMARK VINA RESULT:    -5.671     30.218     31.077
REMARK INTER + INTRA:          -6.117
REMARK INTER:                  -7.169
REMARK INTRA:                   1.052
REMARK UNBOUND:                 1.046
REMARK  6 active torsions:
REMARK  status: ('A' for Active; 'I' for Inactive)
REMARK    1  A    between atoms: O_1  and  C_8 
REMARK    2  A    between atoms: O_2  and  C_9 
REMARK    3  A    between atoms: O_3  and  C_13 
REMARK    4  A    between atoms: C_5  and  C_11 
REMARK    5  A    between atoms: C_11  and  C_12 
REMARK    6  A    between atoms: C_12  and  C_13 
ROOT
ATOM      1  C   UNL d   1      16.445  -3.623 -28.412  0.00  0.00    -0.033 A 
ATOM      2  C   UNL d   1      15.510  -3.577 -28.061  0.00  0.00     0.050 A 
ATOM      3  C   UNL d   1      16.878  -2.804 -28.789  0.00  0.00     0.014 A 
ATOM      4  C   UNL d   1      15.008  -2.712 -28.086  0.00  0.00     0.099 A 
ATOM      5  C   UNL d   1      15.442  -1.893 -28.463  0.00  0.00     0.098 A 
ATOM      6  C   UNL d   1      16.377  -1.940 -28.814  0.00  0.00     0.040 A 
ENDROOT
BRANCH   1   7
ATOM      7  C   UNL d   1      16.946  -4.488 -28.387  0.00  0.00     0.018 C 
BRANCH   7   8
ATOM      8  C   UNL d   1      16.946  -5.042 -27.555  0.00  0.00     0.082 C 
BRANCH   8   9
ATOM      9  C   UNL d   1      17.385  -5.940 -27.552  0.00  0.00     0.165 C 
ATOM     10  O   UNL d   1      18.321  -6.038 -27.214  0.00  0.00    -0.647 OA
BRANCH   9  11
ATOM     11  O   UNL d   1      16.888  -6.741 -27.886  0.00  0.00    -0.773 OA
ATOM     12  H   UNL d   1      16.510  -7.053 -27.506  0.00  0.00     0.167 HD
ENDBRANCH   9  11
ENDBRANCH   8   9
ENDBRANCH   7   8
ENDBRANCH   1   7
BRANCH   4  13
ATOM     13  O   UNL d   1      14.073  -2.665 -27.734  0.00  0.00    -0.358 OA
ATOM     14  H   UNL d   1      13.880  -3.077 -27.313  0.00  0.00     0.217 HD
ENDBRANCH   4  13
BRANCH   5  15
ATOM     15  O   UNL d   1      14.941  -1.028 -28.488  0.00  0.00    -0.358 OA
ATOM     16  H   UNL d   1      15.247  -0.494 -28.562  0.00  0.00     0.217 HD
ENDBRANCH   5  15
TORSDOF 6
ENDMDL
MODEL 3
REMARK VINA RESULT:    -5.617     39.094     40.038
REMARK INTER + INTRA:          -6.049
REMARK INTER:                  -7.115
REMARK INTRA:                   1.066
REMARK UNBOUND:                 1.046
REMARK  6 active torsions:
REMARK  status: ('A' for Active; 'I' for Inactive)
REMARK    1  A    between atoms: O_1  and  C_8 
REMARK    2  A    between atoms: O_2  and  C_9 
REMARK    3  A    between atoms: O_3  and  C_13 
REMARK    4  A    between atoms: C_5  and  C_11 
REMARK    5  A    between atoms: C_11  and  C_12 
REMARK    6  A    between atoms: C_12  and  C_13 
ROOT
ATOM      1  C   UNL d   1      13.080 -13.775   4.268  0.00  0.00    -0.033 A 
ATOM      2  C   UNL d   1      13.641 -14.277   4.927  0.00  0.00     0.050 A 
ATOM      3  C   UNL d   1      12.917 -14.155   3.358  0.00  0.00     0.014 A 
ATOM      4  C   UNL d   1      14.038 -15.160   4.675  0.00  0.00     0.099 A 
ATOM      5  C   UNL d   1      13.875 -15.540   3.764  0.00  0.00     0.098 A 
ATOM      6  C   UNL d   1      13.314 -15.037   3.106  0.00  0.00     0.040 A 
ENDROOT
BRANCH   1   7
ATOM      7  C   UNL d   1      12.683 -12.892   4.520  0.00  0.00     0.018 C 
BRANCH   7   8
ATOM      8  C   UNL d   1      13.229 -12.224   5.025  0.00  0.00     0.082 C 
BRANCH   8   9
ATOM      9  C   UNL d   1      12.921 -11.275   5.092  0.00  0.00     0.165 C 
ATOM     10  O   UNL d   1      12.961 -10.679   4.291  0.00  0.00    -0.647 OA
BRANCH   9  11
ATOM     11  O   UNL d   1      12.573 -10.923   5.961  0.00  0.00    -0.773 OA
ATOM     12  H   UNL d   1      12.329 -10.353   5.989  0.00  0.00     0.167 HD
ENDBRANCH   9  11
ENDBRANCH   8   9
ENDBRANCH   7   8
ENDBRANCH   1   7
BRANCH   4  13
ATOM     13  O   UNL d   1      14.599 -15.662   5.333  0.00  0.00    -0.358 OA
ATOM     14  H   UNL d   1      14.341 -16.099   5.689  0.00  0.00     0.217 HD
ENDBRANCH   4  13
BRANCH   5  15
ATOM     15  O   UNL d   1      14.272 -16.422   3.512  0.00  0.00    -0.358 OA
ATOM     16  H   UNL d   1      14.412 -16.836   3.952  0.00  0.00     0.217 HD
ENDBRANCH   5  15
TORSDOF 6
ENDMDL
MODEL 4
REMARK VINA RESULT:    -5.553     22.919     23.638
REMARK INTER + INTRA:          -5.969
REMARK INTER:                  -6.943
REMARK INTRA:                   0.975
REMARK UNBOUND:                 1.046
REMARK  6 active torsions:
REMARK  status: ('A' for Active; 'I' for Inactive)
REMARK    1  A    between atoms: O_1  and  C_8 
REMARK    2  A    between atoms: O_2  and  C_9 
REMARK    3  A    between atoms: O_3  and  C_13 
REMARK    4  A    between atoms: C_5  and  C_11 
REMARK    5  A    between atoms: C_11  and  C_12 
REMARK    6  A    between atoms: C_12  and  C_13 
ROOT
ATOM      1  C   UNL d   1      -0.533  -1.631  -9.073  0.00  0.00    -0.033 A 
ATOM      2  C   UNL d   1      -0.079  -2.419  -9.488  0.00  0.00     0.050 A 
ATOM      3  C   UNL d   1      -0.400  -0.717  -9.456  0.00  0.00     0.014 A 
ATOM      4  C   UNL d   1       0.509  -2.293 -10.286  0.00  0.00     0.099 A 
ATOM      5  C   UNL d   1       0.643  -1.380 -10.670  0.00  0.00     0.098 A 
ATOM      6  C   UNL d   1       0.188  -0.592 -10.255  0.00  0.00     0.040 A 
ENDROOT
BRANCH   1   7
ATOM      7  C   UNL d   1      -1.121  -1.756  -8.274  0.00  0.00     0.018 C 
BRANCH   7   8
ATOM      8  C   UNL d   1      -0.726  -2.048  -7.403  0.00  0.00     0.082 C 
BRANCH   8   9
ATOM      9  C   UNL d   1      -1.318  -2.198  -6.610  0.00  0.00     0.165 C 
ATOM     10  O   UNL d   1      -1.358  -1.516  -5.880  0.00  0.00    -0.647 OA
BRANCH   9  11
ATOM     11  O   UNL d   1      -1.869  -3.030  -6.548  0.00  0.00    -0.773 OA
ATOM     12  H   UNL d   1      -2.287  -3.158  -6.988  0.00  0.00     0.167 HD
ENDBRANCH   9  11
ENDBRANCH   8   9
ENDBRANCH   7   8
ENDBRANCH   1   7
BRANCH   4  13
ATOM     13  O   UNL d   1       0.964  -3.081 -10.701  0.00  0.00    -0.358 OA
ATOM     14  H   UNL d   1       0.907  -3.643 -10.445  0.00  0.00     0.217 HD
ENDBRANCH   4  13
BRANCH   5  15
ATOM     15  O   UNL d   1       1.231  -1.254 -11.469  0.00  0.00    -0.358 OA
ATOM     16  H   UNL d   1       1.843  -1.342 -11.421  0.00  0.00     0.217 HD
ENDBRANCH   5  15
TORSDOF 6
ENDMDL
MODEL 5
REMARK VINA RESULT:    -5.521     32.955     34.086
REMARK INTER + INTRA:          -5.928
REMARK INTER:                  -7.188
REMARK INTRA:                   1.260
REMARK UNBOUND:                 1.046
REMARK  6 active torsions:
REMARK  status: ('A' for Active; 'I' for Inactive)
REMARK    1  A    between atoms: O_1  and  C_8 
REMARK    2  A    between atoms: O_2  and  C_9 
REMARK    3  A    between atoms: O_3  and  C_13 
REMARK    4  A    between atoms: C_5  and  C_11 
REMARK    5  A    between atoms: C_11  and  C_12 
REMARK    6  A    between atoms: C_12  and  C_13 
ROOT
ATOM      1  C   UNL d   1      15.605 -10.485  -7.693  0.00  0.00    -0.033 A 
ATOM      2  C   UNL d   1      15.640 -10.843  -8.626  0.00  0.00     0.050 A 
ATOM      3  C   UNL d   1      15.532  -9.500  -7.537  0.00  0.00     0.014 A 
ATOM      4  C   UNL d   1      15.602 -10.216  -9.404  0.00  0.00     0.099 A 
ATOM      5  C   UNL d   1      15.529  -9.231  -9.248  0.00  0.00     0.098 A 
ATOM      6  C   UNL d   1      15.494  -8.873  -8.315  0.00  0.00     0.040 A 
ENDROOT
BRANCH   1   7
ATOM      7  C   UNL d   1      15.644 -11.113  -6.915  0.00  0.00     0.018 C 
BRANCH   7   8
ATOM      8  C   UNL d   1      16.454 -11.134  -6.329  0.00  0.00     0.082 C 
BRANCH   8   9
ATOM      9  C   UNL d   1      16.816 -12.009  -6.009  0.00  0.00     0.165 C 
ATOM     10  O   UNL d   1      17.803 -12.172  -6.011  0.00  0.00    -0.647 OA
BRANCH   9  11
ATOM     11  O   UNL d   1      16.193 -12.722  -5.688  0.00  0.00    -0.773 OA
ATOM     12  H   UNL d   1      16.199 -13.282  -5.953  0.00  0.00     0.167 HD
ENDBRANCH   9  11
ENDBRANCH   8   9
ENDBRANCH   7   8
ENDBRANCH   1   7
BRANCH   4  13
ATOM     13  O   UNL d   1      15.636 -10.574 -10.337  0.00  0.00    -0.358 OA
ATOM     14  H   UNL d   1      15.239 -11.016 -10.514  0.00  0.00     0.217 HD
ENDBRANCH   4  13
BRANCH   5  15
ATOM     15  O   UNL d   1      15.491  -8.604 -10.026  0.00  0.00    -0.358 OA
ATOM     16  H   UNL d   1      15.983  -8.540 -10.398  0.00  0.00     0.217 HD
ENDBRANCH   5  15
TORSDOF 6
ENDMDL
