MODEL 1
REMARK VINA RESULT:    -8.018      0.000      0.000
REMARK INTER + INTRA:          -7.601
REMARK INTER:                  -9.575
REMARK INTRA:                   1.974
REMARK UNBOUND:                 2.057
REMARK  5 active torsions:
REMARK  status: ('A' for Active; 'I' for Inactive)
REMARK    1  A    between atoms: O_2  and  C_13 
REMARK    2  A    between atoms: O_3  and  C_19 
REMARK    3  A    between atoms: O_5  and  C_17 
REMARK    4  A    between atoms: O_6  and  C_21 
REMARK    5  A    between atoms: C_8  and  C_10 
ROOT
ATOM      1  O   UNL d   1      16.980 -11.314  -6.607  0.00  0.00    -0.309 OA
ATOM      2  O   UNL d   1      17.584  -8.403  -6.201  0.00  0.00    -0.287 OA
ATOM      3  C   UNL d   1      17.601 -10.034  -5.618  0.00  0.00     0.081 A 
ATOM      4  C   UNL d   1      16.762 -10.653  -7.325  0.00  0.00     0.090 A 
ATOM      5  C   UNL d   1      17.400 -11.004  -5.753  0.00  0.00     0.095 A 
ATOM      6  C   UNL d   1      17.382  -9.373  -6.336  0.00  0.00     0.190 A 
ATOM      7  C   UNL d   1      16.963  -9.683  -7.190  0.00  0.00     0.094 A 
ATOM      8  C   UNL d   1      18.037  -9.697  -4.735  0.00  0.00     0.085 A 
ATOM      9  C   UNL d   1      17.621 -11.705  -5.014  0.00  0.00     0.075 A 
ATOM     10  C   UNL d   1      18.058 -11.390  -4.123  0.00  0.00     0.071 A 
ATOM     11  C   UNL d   1      18.267 -10.380  -3.982  0.00  0.00     0.074 A 
ENDROOT
BRANCH   4  12
ATOM     12  C   UNL d   1      16.342 -10.962  -8.178  0.00  0.00     0.001 A 
ATOM     13  C   UNL d   1      16.773 -11.690  -8.712  0.00  0.00     0.054 A 
ATOM     14  C   UNL d   1      16.354 -12.000  -9.565  0.00  0.00     0.102 A 
ATOM     15  C   UNL d   1      15.504 -11.581  -9.885  0.00  0.00     0.099 A 
ATOM     16  C   UNL d   1      15.073 -10.853  -9.351  0.00  0.00     0.040 A 
ATOM     17  C   UNL d   1      15.492 -10.544  -8.498  0.00  0.00     0.017 A 
BRANCH  14  18
ATOM     18  O   UNL d   1      16.784 -12.728 -10.099  0.00  0.00    -0.353 OA
ATOM     19  C   UNL d   1      17.487 -13.305  -9.682  0.00  0.00     0.210 C 
ENDBRANCH  14  18
BRANCH  15  20
ATOM     20  O   UNL d   1      15.084 -11.891 -10.738  0.00  0.00    -0.358 OA
ATOM     21  H   UNL d   1      15.440 -12.107 -11.198  0.00  0.00     0.217 HD
ENDBRANCH  15  20
ENDBRANCH   4  12
BRANCH   8  22
ATOM     22  O   UNL d   1      18.234  -8.725  -4.610  0.00  0.00    -0.360 OA
ATOM     23  H   UNL d   1      18.083  -8.319  -5.054  0.00  0.00     0.217 HD
ENDBRANCH   8  22
BRANCH  10  24
ATOM     24  O   UNL d   1      18.275 -12.054  -3.407  0.00  0.00    -0.361 OA
ATOM     25  H   UNL d   1      18.030 -11.990  -2.841  0.00  0.00     0.217 HD
ENDBRANCH  10  24
TORSDOF 5
ENDMDL
MODEL 2
REMARK VINA RESULT:    -7.750      1.355      5.200
REMARK INTER + INTRA:          -7.278
REMARK INTER:                  -9.115
REMARK INTRA:                   1.836
REMARK UNBOUND:                 2.057
REMARK  5 active torsions:
REMARK  status: ('A' for Active; 'I' for Inactive)
REMARK    1  A    between atoms: O_2  and  C_13 
REMARK    2  A    between atoms: O_3  and  C_19 
REMARK    3  A    between atoms: O_5  and  C_17 
REMARK    4  A    between atoms: O_6  and  C_21 
REMARK    5  A    between atoms: C_8  and  C_10 
ROOT
ATOM      1  O   UNL d   1      16.972  -9.913  -7.833  0.00  0.00    -0.309 OA
ATOM      2  O   UNL d   1      14.120 -10.769  -7.461  0.00  0.00    -0.287 OA
ATOM      3  C   UNL d   1      15.556 -10.715  -8.427  0.00  0.00     0.081 A 
ATOM      4  C   UNL d   1      16.486  -9.682  -6.990  0.00  0.00     0.090 A 
ATOM      5  C   UNL d   1      16.507 -10.430  -8.551  0.00  0.00     0.095 A 
ATOM      6  C   UNL d   1      15.071 -10.484  -7.585  0.00  0.00     0.190 A 
ATOM      7  C   UNL d   1      15.536  -9.967  -6.866  0.00  0.00     0.094 A 
ATOM      8  C   UNL d   1      15.060 -11.254  -9.167  0.00  0.00     0.085 A 
ATOM      9  C   UNL d   1      17.026 -10.664  -9.424  0.00  0.00     0.075 A 
ATOM     10  C   UNL d   1      16.548 -11.202 -10.177  0.00  0.00     0.071 A 
ATOM     11  C   UNL d   1      15.559 -11.499 -10.048  0.00  0.00     0.074 A 
ENDROOT
BRANCH   4  12
ATOM     12  C   UNL d   1      16.951  -9.165  -6.271  0.00  0.00     0.001 A 
ATOM     13  C   UNL d   1      17.557  -9.635  -5.629  0.00  0.00     0.054 A 
ATOM     14  C   UNL d   1      18.022  -9.118  -4.910  0.00  0.00     0.102 A 
ATOM     15  C   UNL d   1      17.880  -8.132  -4.833  0.00  0.00     0.099 A 
ATOM     16  C   UNL d   1      17.274  -7.661  -5.475  0.00  0.00     0.040 A 
ATOM     17  C   UNL d   1      16.810  -8.178  -6.193  0.00  0.00     0.017 A 
BRANCH  14  18
ATOM     18  O   UNL d   1      18.627  -9.589  -4.268  0.00  0.00    -0.353 OA
ATOM     19  C   UNL d   1      18.622 -10.587  -4.216  0.00  0.00     0.210 C 
ENDBRANCH  14  18
BRANCH  15  20
ATOM     20  O   UNL d   1      18.345  -7.615  -4.114  0.00  0.00    -0.358 OA
ATOM     21  H   UNL d   1      18.374  -7.842  -3.538  0.00  0.00     0.217 HD
ENDBRANCH  15  20
ENDBRANCH   4  12
BRANCH   8  22
ATOM     22  O   UNL d   1      14.109 -11.534  -9.033  0.00  0.00    -0.360 OA
ATOM     23  H   UNL d   1      13.917 -11.720  -8.473  0.00  0.00     0.217 HD
ENDBRANCH   8  22
BRANCH  10  24
ATOM     24  O   UNL d   1      17.038 -11.432 -11.019  0.00  0.00    -0.361 OA
ATOM     25  H   UNL d   1      16.744 -11.406 -11.564  0.00  0.00     0.217 HD
ENDBRANCH  10  24
TORSDOF 5
ENDMDL
MODEL 3
REMARK VINA RESULT:    -7.744     39.377     41.336
REMARK INTER + INTRA:          -7.272
REMARK INTER:                  -9.149
REMARK INTRA:                   1.878
REMARK UNBOUND:                 2.057
REMARK  5 active torsions:
REMARK  status: ('A' for Active; 'I' for Inactive)
REMARK    1  A    between atoms: O_2  and  C_13 
REMARK    2  A    between atoms: O_3  and  C_19 
REMARK    3  A    between atoms: O_5  and  C_17 
REMARK    4  A    between atoms: O_6  and  C_21 
REMARK    5  A    between atoms: C_8  and  C_10 
ROOT
ATOM      1  O   UNL d   1     -10.945 -14.799 -36.137  0.00  0.00    -0.309 OA
ATOM      2  O   UNL d   1     -11.091 -17.324 -37.750  0.00  0.00    -0.287 OA
ATOM      3  C   UNL d   1     -11.071 -16.524 -36.214  0.00  0.00     0.081 A 
ATOM      4  C   UNL d   1     -10.917 -14.756 -37.136  0.00  0.00     0.090 A 
ATOM      5  C   UNL d   1     -11.022 -15.683 -35.676  0.00  0.00     0.095 A 
ATOM      6  C   UNL d   1     -11.042 -16.482 -37.213  0.00  0.00     0.190 A 
ATOM      7  C   UNL d   1     -10.966 -15.598 -37.674  0.00  0.00     0.094 A 
ATOM      8  C   UNL d   1     -11.151 -17.452 -35.748  0.00  0.00     0.085 A 
ATOM      9  C   UNL d   1     -11.050 -15.710 -34.635  0.00  0.00     0.075 A 
ATOM     10  C   UNL d   1     -11.130 -16.628 -34.148  0.00  0.00     0.071 A 
ATOM     11  C   UNL d   1     -11.181 -17.504 -34.708  0.00  0.00     0.074 A 
ENDROOT
BRANCH   4  12
ATOM     12  C   UNL d   1     -10.840 -13.872 -37.597  0.00  0.00     0.001 A 
ATOM     13  C   UNL d   1     -11.650 -13.448 -38.002  0.00  0.00     0.054 A 
ATOM     14  C   UNL d   1     -11.573 -12.564 -38.463  0.00  0.00     0.102 A 
ATOM     15  C   UNL d   1     -10.686 -12.104 -38.519  0.00  0.00     0.099 A 
ATOM     16  C   UNL d   1      -9.877 -12.529 -38.114  0.00  0.00     0.040 A 
ATOM     17  C   UNL d   1      -9.953 -13.413 -37.653  0.00  0.00     0.017 A 
BRANCH  14  18
ATOM     18  O   UNL d   1     -12.382 -12.139 -38.869  0.00  0.00    -0.353 OA
ATOM     19  C   UNL d   1     -13.095 -12.710 -39.275  0.00  0.00     0.210 C 
ENDBRANCH  14  18
BRANCH  15  20
ATOM     20  O   UNL d   1     -10.609 -11.220 -38.980  0.00  0.00    -0.358 OA
ATOM     21  H   UNL d   1     -11.068 -11.021 -39.347  0.00  0.00     0.217 HD
ENDBRANCH  15  20
ENDBRANCH   4  12
BRANCH   8  22
ATOM     22  O   UNL d   1     -11.199 -18.287 -36.295  0.00  0.00    -0.360 OA
ATOM     23  H   UNL d   1     -11.629 -18.716 -36.170  0.00  0.00     0.217 HD
ENDBRANCH   8  22
BRANCH  10  24
ATOM     24  O   UNL d   1     -11.158 -16.665 -33.149  0.00  0.00    -0.361 OA
ATOM     25  H   UNL d   1     -10.630 -16.689 -32.825  0.00  0.00     0.217 HD
ENDBRANCH  10  24
TORSDOF 5
ENDMDL
MODEL 4
REMARK VINA RESULT:    -7.742      1.959      2.837
REMARK INTER + INTRA:          -7.269
REMARK INTER:                  -9.254
REMARK INTRA:                   1.984
REMARK UNBOUND:                 2.057
REMARK  5 active torsions:
REMARK  status: ('A' for Active; 'I' for Inactive)
REMARK    1  A    between atoms: O_2  and  C_13 
REMARK    2  A    between atoms: O_3  and  C_19 
REMARK    3  A    between atoms: O_5  and  C_17 
REMARK    4  A    between atoms: O_6  and  C_21 
REMARK    5  A    between atoms: C_8  and  C_10 
ROOT
ATOM      1  O   UNL d   1      16.121 -11.467  -8.315  0.00  0.00    -0.309 OA
ATOM      2  O   UNL d   1      15.283  -8.778  -9.347  0.00  0.00    -0.287 OA
ATOM      3  C   UNL d   1      15.696  -9.814  -8.022  0.00  0.00     0.081 A 
ATOM      4  C   UNL d   1      15.987 -11.327  -9.296  0.00  0.00     0.090 A 
ATOM      5  C   UNL d   1      15.975 -10.710  -7.678  0.00  0.00     0.095 A 
ATOM      6  C   UNL d   1      15.563  -9.674  -9.003  0.00  0.00     0.190 A 
ATOM      7  C   UNL d   1      15.708 -10.431  -9.640  0.00  0.00     0.094 A 
ATOM      8  C   UNL d   1      15.540  -9.016  -7.371  0.00  0.00     0.085 A 
ATOM      9  C   UNL d   1      16.118 -10.871  -6.658  0.00  0.00     0.075 A 
ATOM     10  C   UNL d   1      15.968 -10.087  -5.989  0.00  0.00     0.071 A 
ATOM     11  C   UNL d   1      15.677  -9.154  -6.347  0.00  0.00     0.074 A 
ENDROOT
BRANCH   4  12
ATOM     12  C   UNL d   1      16.133 -12.084  -9.933  0.00  0.00     0.001 A 
ATOM     13  C   UNL d   1      16.986 -12.606  -9.903  0.00  0.00     0.054 A 
ATOM     14  C   UNL d   1      17.132 -13.363 -10.540  0.00  0.00     0.102 A 
ATOM     15  C   UNL d   1      16.425 -13.598 -11.207  0.00  0.00     0.099 A 
ATOM     16  C   UNL d   1      15.572 -13.077 -11.237  0.00  0.00     0.040 A 
ATOM     17  C   UNL d   1      15.426 -12.320 -10.600  0.00  0.00     0.017 A 
BRANCH  14  18
ATOM     18  O   UNL d   1      17.984 -13.885 -10.510  0.00  0.00    -0.353 OA
ATOM     19  C   UNL d   1      18.571 -13.838  -9.701  0.00  0.00     0.210 C 
ENDBRANCH  14  18
BRANCH  15  20
ATOM     20  O   UNL d   1      16.571 -14.355 -11.844  0.00  0.00    -0.358 OA
ATOM     21  H   UNL d   1      16.163 -14.822 -11.870  0.00  0.00     0.217 HD
ENDBRANCH  15  20
ENDBRANCH   4  12
BRANCH   8  22
ATOM     22  O   UNL d   1      15.261  -8.124  -7.726  0.00  0.00    -0.360 OA
ATOM     23  H   UNL d   1      15.488  -7.921  -8.266  0.00  0.00     0.217 HD
ENDBRANCH   8  22
BRANCH  10  24
ATOM     24  O   UNL d   1      16.102 -10.231  -5.008  0.00  0.00    -0.361 OA
ATOM     25  H   UNL d   1      15.888 -10.746  -4.739  0.00  0.00     0.217 HD
ENDBRANCH  10  24
TORSDOF 5
ENDMDL
MODEL 5
REMARK VINA RESULT:    -7.625      1.746      5.528
REMARK INTER + INTRA:          -7.128
REMARK INTER:                  -9.100
REMARK INTRA:                   1.972
REMARK UNBOUND:                 2.057
REMARK  5 active torsions:
REMARK  status: ('A' for Active; 'I' for Inactive)
REMARK    1  A    between atoms: O_2  and  C_13 
REMARK    2  A    between atoms: O_3  and  C_19 
REMARK    3  A    between atoms: O_5  and  C_17 
REMARK    4  A    between atoms: O_6  and  C_21 
REMARK    5  A    between atoms: C_8  and  C_10 
ROOT
ATOM      1  O   UNL d   1      16.045 -12.091  -9.168  0.00  0.00    -0.309 OA
ATOM      2  O   UNL d   1      18.781 -13.157  -9.786  0.00  0.00    -0.287 OA
ATOM      3  C   UNL d   1      17.123 -12.930 -10.234  0.00  0.00     0.081 A 
ATOM      4  C   UNL d   1      16.791 -11.963  -8.515  0.00  0.00     0.090 A 
ATOM      5  C   UNL d   1      16.211 -12.575 -10.028  0.00  0.00     0.095 A 
ATOM      6  C   UNL d   1      17.869 -12.801  -9.580  0.00  0.00     0.190 A 
ATOM      7  C   UNL d   1      17.703 -12.318  -8.721  0.00  0.00     0.094 A 
ATOM      8  C   UNL d   1      17.310 -13.436 -11.124  0.00  0.00     0.085 A 
ATOM      9  C   UNL d   1      15.424 -12.701 -10.698  0.00  0.00     0.075 A 
ATOM     10  C   UNL d   1      15.589 -13.204 -11.595  0.00  0.00     0.071 A 
ATOM     11  C   UNL d   1      16.538 -13.573 -11.810  0.00  0.00     0.074 A 
ENDROOT
BRANCH   4  12
ATOM     12  C   UNL d   1      16.625 -11.479  -7.655  0.00  0.00     0.001 A 
ATOM     13  C   UNL d   1      16.252 -10.552  -7.668  0.00  0.00     0.054 A 
ATOM     14  C   UNL d   1      16.086 -10.068  -6.808  0.00  0.00     0.102 A 
ATOM     15  C   UNL d   1      16.294 -10.512  -5.937  0.00  0.00     0.099 A 
ATOM     16  C   UNL d   1      16.667 -11.439  -5.924  0.00  0.00     0.040 A 
ATOM     17  C   UNL d   1      16.833 -11.923  -6.784  0.00  0.00     0.017 A 
BRANCH  14  18
ATOM     18  O   UNL d   1      15.712  -9.140  -6.821  0.00  0.00    -0.353 OA
ATOM     19  C   UNL d   1      15.147  -8.839  -7.588  0.00  0.00     0.210 C 
ENDBRANCH  14  18
BRANCH  15  20
ATOM     20  O   UNL d   1      16.128 -10.028  -5.077  0.00  0.00    -0.358 OA
ATOM     21  H   UNL d   1      16.435 -10.193  -4.564  0.00  0.00     0.217 HD
ENDBRANCH  15  20
ENDBRANCH   4  12
BRANCH   8  22
ATOM     22  O   UNL d   1      18.226 -13.786 -11.320  0.00  0.00    -0.360 OA
ATOM     23  H   UNL d   1      18.371 -14.371 -11.174  0.00  0.00     0.217 HD
ENDBRANCH   8  22
BRANCH  10  24
ATOM     24  O   UNL d   1      14.840 -13.330 -12.246  0.00  0.00    -0.361 OA
ATOM     25  H   UNL d   1      14.262 -13.420 -12.040  0.00  0.00     0.217 HD
ENDBRANCH  10  24
TORSDOF 5
ENDMDL
