MODEL 1
REMARK VINA RESULT:   -12.689      0.000      0.000
REMARK INTER + INTRA:         -14.336
REMARK INTER:                 -15.647
REMARK INTRA:                   1.311
REMARK UNBOUND:                 1.321
REMARK  6 active torsions:
REMARK  status: ('A' for Active; 'I' for Inactive)
REMARK    1  A    between atoms: C_22  and  O_1 
REMARK    2  A    between atoms: C_24  and  O_2 
REMARK    3  A    between atoms: O_3  and  C_30 
REMARK    4  A    between atoms: O_4  and  C_33 
REMARK    5  A    between atoms: C_14  and  C_30 
REMARK    6  A    between atoms: C_19  and  C_33 
ROOT
ATOM      1  C   UNL d   1     -21.771  -4.848  24.804  0.00  0.00    -0.028 A 
ATOM      2  C   UNL d   1     -20.998  -4.249  25.013  0.00  0.00     0.007 A 
ATOM      3  C   UNL d   1     -20.627  -3.586  24.300  0.00  0.00    -0.033 A 
ATOM      4  C   UNL d   1     -22.116  -5.479  25.499  0.00  0.00    -0.013 A 
ATOM      5  C   UNL d   1     -21.068  -3.546  23.358  0.00  0.00     0.007 A 
ATOM      6  C   UNL d   1     -22.227  -4.825  23.869  0.00  0.00     0.011 A 
ATOM      7  C   UNL d   1     -21.687  -5.512  26.402  0.00  0.00    -0.069 A 
ATOM      8  C   UNL d   1     -21.874  -4.169  23.140  0.00  0.00     0.007 A 
ATOM      9  C   UNL d   1     -20.700  -2.862  22.599  0.00  0.00     0.010 A 
ATOM     10  C   UNL d   1     -22.035  -6.165  27.135  0.00  0.00     0.038 A 
ATOM     11  C   UNL d   1     -20.569  -4.282  25.916  0.00  0.00     0.033 A 
ATOM     12  C   UNL d   1     -19.787  -2.946  24.549  0.00  0.00     0.044 A 
ATOM     13  C   UNL d   1     -22.922  -6.097  25.266  0.00  0.00     0.016 A 
ATOM     14  C   UNL d   1     -22.840  -6.792  26.925  0.00  0.00     0.053 A 
ATOM     15  C   UNL d   1     -22.514  -5.279  24.293  0.00  0.00     0.016 C 
ATOM     16  C   UNL d   1     -23.287  -6.757  25.984  0.00  0.00     0.022 A 
ATOM     17  C   UNL d   1     -19.862  -2.213  22.825  0.00  0.00     0.157 A 
ATOM     18  C   UNL d   1     -20.914  -4.914  26.610  0.00  0.00    -0.022 A 
ATOM     19  C   UNL d   1     -19.402  -2.255  23.807  0.00  0.00     0.148 A 
ATOM     20  C   UNL d   1     -20.204  -3.624  25.205  0.00  0.00     0.016 C 
ATOM     21  C   UNL d   1     -22.739  -5.691  24.746  0.00  0.00     0.021 C 
ATOM     22  C   UNL d   1     -21.554  -6.183  28.107  0.00  0.00    -0.005 A 
ATOM     23  C   UNL d   1     -23.220  -7.480  27.673  0.00  0.00     0.021 A 
ATOM     24  C   UNL d   1     -21.916  -6.863  28.871  0.00  0.00    -0.014 A 
ATOM     25  C   UNL d   1     -21.396  -3.192  21.960  0.00  0.00     0.020 C 
ATOM     26  C   UNL d   1     -22.755  -7.516  28.653  0.00  0.00     0.006 A 
ATOM     27  C   UNL d   1     -20.781  -5.577  28.298  0.00  0.00     0.011 C 
ATOM     28  C   UNL d   1     -21.480  -6.888  29.770  0.00  0.00     0.010 C 
ENDROOT
BRANCH   9  29
ATOM     29  C   UNL d   1     -20.752  -2.481  21.676  0.00  0.00     0.176 C 
BRANCH  29  30
ATOM     30  O   UNL d   1     -21.629  -2.448  21.197  0.00  0.00    -0.400 OA
ATOM     31  H   UNL d   1     -21.898  -2.973  21.006  0.00  0.00     0.209 HD
ENDBRANCH  29  30
ENDBRANCH   9  29
BRANCH  17  32
ATOM     32  O   UNL d   1     -19.514  -1.580  22.134  0.00  0.00    -0.392 OA
ATOM     33  H   UNL d   1     -19.902  -1.192  21.845  0.00  0.00     0.210 HD
ENDBRANCH  17  32
BRANCH  19  34
ATOM     34  O   UNL d   1     -18.628  -1.661  24.026  0.00  0.00    -0.393 OA
ATOM     35  H   UNL d   1     -18.092  -1.724  23.721  0.00  0.00     0.210 HD
ENDBRANCH  19  34
BRANCH  14  36
ATOM     36  C   UNL d   1     -23.613  -7.394  26.724  0.00  0.00     0.149 C 
ATOM     37  O   UNL d   1     -24.546  -7.088  26.915  0.00  0.00    -0.649 OA
BRANCH  36  38
ATOM     38  O   UNL d   1     -23.453  -8.299  26.332  0.00  0.00    -0.776 OA
ATOM     39  H   UNL d   1     -23.146  -8.728  26.658  0.00  0.00     0.167 HD
ENDBRANCH  36  38
ENDBRANCH  14  36
TORSDOF 6
ENDMDL
MODEL 2
REMARK VINA RESULT:   -12.641     34.400     36.965
REMARK INTER + INTRA:         -14.276
REMARK INTER:                 -15.596
REMARK INTRA:                   1.320
REMARK UNBOUND:                 1.321
REMARK  6 active torsions:
REMARK  status: ('A' for Active; 'I' for Inactive)
REMARK    1  A    between atoms: C_22  and  O_1 
REMARK    2  A    between atoms: C_24  and  O_2 
REMARK    3  A    between atoms: O_3  and  C_30 
REMARK    4  A    between atoms: O_4  and  C_33 
REMARK    5  A    between atoms: C_14  and  C_30 
REMARK    6  A    between atoms: C_19  and  C_33 
ROOT
ATOM      1  C   UNL d   1       8.199   1.199   4.316  0.00  0.00    -0.028 A 
ATOM      2  C   UNL d   1       8.249   1.960   3.670  0.00  0.00     0.007 A 
ATOM      3  C   UNL d   1       8.400   1.790   2.654  0.00  0.00    -0.033 A 
ATOM      4  C   UNL d   1       8.053   1.378   5.289  0.00  0.00    -0.013 A 
ATOM      5  C   UNL d   1       8.502   0.814   2.306  0.00  0.00     0.007 A 
ATOM      6  C   UNL d   1       8.299   0.215   3.992  0.00  0.00     0.011 A 
ATOM      7  C   UNL d   1       7.956   2.318   5.616  0.00  0.00    -0.069 A 
ATOM      8  C   UNL d   1       8.451   0.020   2.980  0.00  0.00     0.007 A 
ATOM      9  C   UNL d   1       8.661   0.611   1.252  0.00  0.00     0.010 A 
ATOM     10  C   UNL d   1       7.803   2.520   6.626  0.00  0.00     0.038 A 
ATOM     11  C   UNL d   1       8.152   2.900   3.996  0.00  0.00     0.033 A 
ATOM     12  C   UNL d   1       8.450   2.632   1.971  0.00  0.00     0.044 A 
ATOM     13  C   UNL d   1       8.004   0.574   5.951  0.00  0.00     0.016 A 
ATOM     14  C   UNL d   1       7.751   1.732   7.306  0.00  0.00     0.053 A 
ATOM     15  C   UNL d   1       8.201   0.262   4.668  0.00  0.00     0.016 C 
ATOM     16  C   UNL d   1       7.852   0.753   6.965  0.00  0.00     0.022 A 
ATOM     17  C   UNL d   1       8.715   1.437   0.551  0.00  0.00     0.157 A 
ATOM     18  C   UNL d   1       8.005   3.079   4.969  0.00  0.00    -0.022 A 
ATOM     19  C   UNL d   1       8.609   2.454   0.912  0.00  0.00     0.148 A 
ATOM     20  C   UNL d   1       8.303   2.727   2.988  0.00  0.00     0.016 C 
ATOM     21  C   UNL d   1       8.106   0.379   5.302  0.00  0.00     0.021 C 
ATOM     22  C   UNL d   1       7.701   3.548   6.957  0.00  0.00    -0.005 A 
ATOM     23  C   UNL d   1       7.593   1.918   8.363  0.00  0.00     0.021 A 
ATOM     24  C   UNL d   1       7.542   3.759   8.009  0.00  0.00    -0.014 A 
ATOM     25  C   UNL d   1       8.688  -0.371   1.441  0.00  0.00     0.020 C 
ATOM     26  C   UNL d   1       7.487   2.938   8.717  0.00  0.00     0.006 A 
ATOM     27  C   UNL d   1       7.753   4.298   6.296  0.00  0.00     0.011 C 
ATOM     28  C   UNL d   1       7.446   4.703   8.324  0.00  0.00     0.010 C 
ENDROOT
BRANCH   9  29
ATOM     29  C   UNL d   1       8.802  -0.038   0.504  0.00  0.00     0.176 C 
BRANCH  29  30
ATOM     30  O   UNL d   1       8.474  -0.979   0.591  0.00  0.00    -0.400 OA
ATOM     31  H   UNL d   1       8.415  -1.334   0.086  0.00  0.00     0.209 HD
ENDBRANCH  29  30
ENDBRANCH   9  29
BRANCH  17  32
ATOM     32  O   UNL d   1       8.861   1.262  -0.423  0.00  0.00    -0.392 OA
ATOM     33  H   UNL d   1       8.675   1.677  -0.844  0.00  0.00     0.210 HD
ENDBRANCH  17  32
BRANCH  19  34
ATOM     34  O   UNL d   1       8.656   3.223   0.275  0.00  0.00    -0.393 OA
ATOM     35  H   UNL d   1       8.343   3.744   0.394  0.00  0.00     0.210 HD
ENDBRANCH  19  34
BRANCH  14  36
ATOM     36  C   UNL d   1       7.701   0.976   7.958  0.00  0.00     0.149 C 
ATOM     37  O   UNL d   1       8.522   0.685   8.449  0.00  0.00    -0.649 OA
BRANCH  36  38
ATOM     38  O   UNL d   1       6.830   0.512   8.120  0.00  0.00    -0.776 OA
ATOM     39  H   UNL d   1       6.440   0.412   7.649  0.00  0.00     0.167 HD
ENDBRANCH  36  38
ENDBRANCH  14  36
TORSDOF 6
ENDMDL
MODEL 3
REMARK VINA RESULT:   -12.544      1.135      2.581
REMARK INTER + INTRA:         -14.156
REMARK INTER:                 -15.477
REMARK INTRA:                   1.321
REMARK UNBOUND:                 1.321
REMARK  6 active torsions:
REMARK  status: ('A' for Active; 'I' for Inactive)
REMARK    1  A    between atoms: C_22  and  O_1 
REMARK    2  A    between atoms: C_24  and  O_2 
REMARK    3  A    between atoms: O_3  and  C_30 
REMARK    4  A    between atoms: O_4  and  C_33 
REMARK    5  A    between atoms: C_14  and  C_30 
REMARK    6  A    between atoms: C_19  and  C_33 
ROOT
ATOM      1  C   UNL d   1     -20.969  -4.539  25.598  0.00  0.00    -0.028 A 
ATOM      2  C   UNL d   1     -21.486  -4.508  24.742  0.00  0.00     0.007 A 
ATOM      3  C   UNL d   1     -21.177  -3.902  23.954  0.00  0.00    -0.033 A 
ATOM      4  C   UNL d   1     -21.277  -5.126  26.347  0.00  0.00    -0.013 A 
ATOM      5  C   UNL d   1     -20.319  -3.321  24.057  0.00  0.00     0.007 A 
ATOM      6  C   UNL d   1     -20.108  -3.967  25.724  0.00  0.00     0.011 A 
ATOM      7  C   UNL d   1     -22.102  -5.681  26.240  0.00  0.00    -0.069 A 
ATOM      8  C   UNL d   1     -19.781  -3.353  24.948  0.00  0.00     0.007 A 
ATOM      9  C   UNL d   1     -19.978  -2.681  23.249  0.00  0.00     0.010 A 
ATOM     10  C   UNL d   1     -22.435  -6.297  27.011  0.00  0.00     0.038 A 
ATOM     11  C   UNL d   1     -22.310  -5.063  24.636  0.00  0.00     0.033 A 
ATOM     12  C   UNL d   1     -21.754  -3.884  23.035  0.00  0.00     0.044 A 
ATOM     13  C   UNL d   1     -20.728  -5.148  27.232  0.00  0.00     0.016 A 
ATOM     14  C   UNL d   1     -21.902  -6.335  27.905  0.00  0.00     0.053 A 
ATOM     15  C   UNL d   1     -20.260  -4.344  26.275  0.00  0.00     0.016 C 
ATOM     16  C   UNL d   1     -21.043  -5.757  28.016  0.00  0.00     0.022 A 
ATOM     17  C   UNL d   1     -20.539  -2.647  22.321  0.00  0.00     0.157 A 
ATOM     18  C   UNL d   1     -22.619  -5.650  25.385  0.00  0.00    -0.022 A 
ATOM     19  C   UNL d   1     -21.433  -3.252  22.213  0.00  0.00     0.148 A 
ATOM     20  C   UNL d   1     -22.001  -4.460  23.854  0.00  0.00     0.016 C 
ATOM     21  C   UNL d   1     -20.460  -4.726  26.764  0.00  0.00     0.021 C 
ATOM     22  C   UNL d   1     -23.332  -6.890  26.872  0.00  0.00    -0.005 A 
ATOM     23  C   UNL d   1     -22.230  -6.969  28.723  0.00  0.00     0.021 A 
ATOM     24  C   UNL d   1     -23.680  -7.532  27.675  0.00  0.00    -0.014 A 
ATOM     25  C   UNL d   1     -19.205  -2.381  23.808  0.00  0.00     0.020 C 
ATOM     26  C   UNL d   1     -23.125  -7.572  28.607  0.00  0.00     0.006 A 
ATOM     27  C   UNL d   1     -23.837  -6.847  26.009  0.00  0.00     0.011 C 
ATOM     28  C   UNL d   1     -24.506  -8.083  27.558  0.00  0.00     0.010 C 
ENDROOT
BRANCH   9  29
ATOM     29  C   UNL d   1     -19.322  -2.022  22.882  0.00  0.00     0.176 C 
BRANCH  29  30
ATOM     30  O   UNL d   1     -18.361  -2.071  23.151  0.00  0.00    -0.400 OA
ATOM     31  H   UNL d   1     -17.968  -1.622  22.981  0.00  0.00     0.209 HD
ENDBRANCH  29  30
ENDBRANCH   9  29
BRANCH  17  32
ATOM     32  O   UNL d   1     -20.234  -2.062  21.570  0.00  0.00    -0.392 OA
ATOM     33  H   UNL d   1     -20.621  -1.927  21.104  0.00  0.00     0.210 HD
ENDBRANCH  17  32
BRANCH  19  34
ATOM     34  O   UNL d   1     -21.957  -3.228  21.362  0.00  0.00    -0.393 OA
ATOM     35  H   UNL d   1     -21.987  -2.705  21.030  0.00  0.00     0.210 HD
ENDBRANCH  19  34
BRANCH  14  36
ATOM     36  C   UNL d   1     -21.391  -6.372  28.764  0.00  0.00     0.149 C 
ATOM     37  O   UNL d   1     -21.587  -5.713  29.490  0.00  0.00    -0.649 OA
BRANCH  36  38
ATOM     38  O   UNL d   1     -20.685  -7.067  28.896  0.00  0.00    -0.776 OA
ATOM     39  H   UNL d   1     -20.843  -7.664  28.945  0.00  0.00     0.167 HD
ENDBRANCH  36  38
ENDBRANCH  14  36
TORSDOF 6
ENDMDL
MODEL 4
REMARK VINA RESULT:   -12.033     29.700     31.770
REMARK INTER + INTRA:         -13.526
REMARK INTER:                 -14.869
REMARK INTRA:                   1.342
REMARK UNBOUND:                 1.321
REMARK  6 active torsions:
REMARK  status: ('A' for Active; 'I' for Inactive)
REMARK    1  A    between atoms: C_22  and  O_1 
REMARK    2  A    between atoms: C_24  and  O_2 
REMARK    3  A    between atoms: O_3  and  C_30 
REMARK    4  A    between atoms: O_4  and  C_33 
REMARK    5  A    between atoms: C_14  and  C_30 
REMARK    6  A    between atoms: C_19  and  C_33 
ROOT
ATOM      1  C   UNL d   1      -8.148   9.329   0.926  0.00  0.00    -0.028 A 
ATOM      2  C   UNL d   1      -8.080   9.939   1.715  0.00  0.00     0.007 A 
ATOM      3  C   UNL d   1      -7.485   9.691   2.533  0.00  0.00    -0.033 A 
ATOM      4  C   UNL d   1      -8.724   9.579   0.148  0.00  0.00    -0.013 A 
ATOM      5  C   UNL d   1      -6.953   8.796   2.529  0.00  0.00     0.007 A 
ATOM      6  C   UNL d   1      -7.626   8.429   0.900  0.00  0.00     0.011 A 
ATOM      7  C   UNL d   1      -9.232  10.441   0.158  0.00  0.00    -0.069 A 
ATOM      8  C   UNL d   1      -7.024   8.160   1.707  0.00  0.00     0.007 A 
ATOM      9  C   UNL d   1      -6.326   8.517   3.370  0.00  0.00     0.010 A 
ATOM     10  C   UNL d   1      -9.836  10.716  -0.645  0.00  0.00     0.038 A 
ATOM     11  C   UNL d   1      -8.588  10.801   1.726  0.00  0.00     0.033 A 
ATOM     12  C   UNL d   1      -7.426  10.370   3.377  0.00  0.00     0.044 A 
ATOM     13  C   UNL d   1      -8.785   8.933  -0.667  0.00  0.00     0.016 A 
ATOM     14  C   UNL d   1      -9.912  10.085  -1.470  0.00  0.00     0.053 A 
ATOM     15  C   UNL d   1      -7.998   8.535   0.336  0.00  0.00     0.016 C 
ATOM     16  C   UNL d   1      -9.382   9.187  -1.481  0.00  0.00     0.022 A 
ATOM     17  C   UNL d   1      -6.252   9.179   4.225  0.00  0.00     0.157 A 
ATOM     18  C   UNL d   1      -9.164  11.051   0.947  0.00  0.00    -0.022 A 
ATOM     19  C   UNL d   1      -6.806  10.112   4.230  0.00  0.00     0.148 A 
ATOM     20  C   UNL d   1      -7.995  10.551   2.536  0.00  0.00     0.016 C 
ATOM     21  C   UNL d   1      -8.374   8.699  -0.172  0.00  0.00     0.021 C 
ATOM     22  C   UNL d   1     -10.377  11.655  -0.610  0.00  0.00    -0.005 A 
ATOM     23  C   UNL d   1     -10.534  10.350  -2.318  0.00  0.00     0.021 A 
ATOM     24  C   UNL d   1     -11.006  11.941  -1.447  0.00  0.00    -0.014 A 
ATOM     25  C   UNL d   1      -6.074   7.668   2.904  0.00  0.00     0.020 C 
ATOM     26  C   UNL d   1     -11.085  11.284  -2.307  0.00  0.00     0.006 A 
ATOM     27  C   UNL d   1     -10.297  12.254   0.188  0.00  0.00     0.011 C 
ATOM     28  C   UNL d   1     -11.509  12.805  -1.425  0.00  0.00     0.010 C 
ENDROOT
BRANCH   9  29
ATOM     29  C   UNL d   1      -5.701   7.872   3.809  0.00  0.00     0.176 C 
BRANCH  29  30
ATOM     30  O   UNL d   1      -4.985   7.425   3.273  0.00  0.00    -0.400 OA
ATOM     31  H   UNL d   1      -4.545   7.765   2.998  0.00  0.00     0.209 HD
ENDBRANCH  29  30
ENDBRANCH   9  29
BRANCH  17  32
ATOM     32  O   UNL d   1      -5.677   8.932   5.005  0.00  0.00    -0.392 OA
ATOM     33  H   UNL d   1      -5.093   8.745   4.914  0.00  0.00     0.210 HD
ENDBRANCH  17  32
BRANCH  19  34
ATOM     34  O   UNL d   1      -6.745  10.730   5.013  0.00  0.00    -0.393 OA
ATOM     35  H   UNL d   1      -6.931  10.540   5.573  0.00  0.00     0.210 HD
ENDBRANCH  19  34
BRANCH  14  36
ATOM     36  C   UNL d   1      -9.985   9.479  -2.263  0.00  0.00     0.149 C 
ATOM     37  O   UNL d   1      -9.344   9.575  -3.024  0.00  0.00    -0.649 OA
BRANCH  36  38
ATOM     38  O   UNL d   1     -10.697   8.779  -2.293  0.00  0.00    -0.776 OA
ATOM     39  H   UNL d   1     -10.661   8.319  -2.707  0.00  0.00     0.167 HD
ENDBRANCH  36  38
ENDBRANCH  14  36
TORSDOF 6
ENDMDL
MODEL 5
REMARK VINA RESULT:   -12.005      1.059      6.299
REMARK INTER + INTRA:         -13.491
REMARK INTER:                 -14.795
REMARK INTRA:                   1.304
REMARK UNBOUND:                 1.321
REMARK  6 active torsions:
REMARK  status: ('A' for Active; 'I' for Inactive)
REMARK    1  A    between atoms: C_22  and  O_1 
REMARK    2  A    between atoms: C_24  and  O_2 
REMARK    3  A    between atoms: O_3  and  C_30 
REMARK    4  A    between atoms: O_4  and  C_33 
REMARK    5  A    between atoms: C_14  and  C_30 
REMARK    6  A    between atoms: C_19  and  C_33 
ROOT
ATOM      1  C   UNL d   1     -20.936  -4.778  25.901  0.00  0.00    -0.028 A 
ATOM      2  C   UNL d   1     -21.814  -5.246  25.798  0.00  0.00     0.007 A 
ATOM      3  C   UNL d   1     -22.192  -5.846  26.561  0.00  0.00    -0.033 A 
ATOM      4  C   UNL d   1     -20.585  -4.205  25.160  0.00  0.00    -0.013 A 
ATOM      5  C   UNL d   1     -21.649  -5.961  27.442  0.00  0.00     0.007 A 
ATOM      6  C   UNL d   1     -20.376  -4.878  26.772  0.00  0.00     0.011 A 
ATOM      7  C   UNL d   1     -21.112  -4.100  24.317  0.00  0.00    -0.069 A 
ATOM      8  C   UNL d   1     -20.734  -5.473  27.549  0.00  0.00     0.007 A 
ATOM      9  C   UNL d   1     -22.023  -6.581  28.250  0.00  0.00     0.010 A 
ATOM     10  C   UNL d   1     -20.760  -3.507  23.536  0.00  0.00     0.038 A 
ATOM     11  C   UNL d   1     -22.341  -5.141  24.955  0.00  0.00     0.033 A 
ATOM     12  C   UNL d   1     -23.147  -6.344  26.427  0.00  0.00     0.044 A 
ATOM     13  C   UNL d   1     -19.669  -3.725  25.282  0.00  0.00     0.016 A 
ATOM     14  C   UNL d   1     -19.846  -3.016  23.636  0.00  0.00     0.053 A 
ATOM     15  C   UNL d   1     -20.076  -4.473  26.310  0.00  0.00     0.016 C 
ATOM     16  C   UNL d   1     -19.297  -3.126  24.514  0.00  0.00     0.022 A 
ATOM     17  C   UNL d   1     -22.975  -7.088  28.139  0.00  0.00     0.157 A 
ATOM     18  C   UNL d   1     -21.990  -4.568  24.214  0.00  0.00    -0.022 A 
ATOM     19  C   UNL d   1     -23.541  -6.969  27.221  0.00  0.00     0.148 A 
ATOM     20  C   UNL d   1     -22.713  -5.736  25.715  0.00  0.00     0.016 C 
ATOM     21  C   UNL d   1     -19.847  -4.099  25.826  0.00  0.00     0.021 C 
ATOM     22  C   UNL d   1     -21.349  -3.407  22.631  0.00  0.00    -0.005 A 
ATOM     23  C   UNL d   1     -19.459  -2.393  22.837  0.00  0.00     0.021 A 
ATOM     24  C   UNL d   1     -20.982  -2.789  21.819  0.00  0.00    -0.014 A 
ATOM     25  C   UNL d   1     -21.210  -6.369  28.793  0.00  0.00     0.020 C 
ATOM     26  C   UNL d   1     -20.031  -2.279  21.922  0.00  0.00     0.006 A 
ATOM     27  C   UNL d   1     -22.226  -3.883  22.546  0.00  0.00     0.011 C 
ATOM     28  C   UNL d   1     -21.518  -2.691  20.980  0.00  0.00     0.010 C 
ENDROOT
BRANCH   9  29
ATOM     29  C   UNL d   1     -21.917  -6.970  29.165  0.00  0.00     0.176 C 
BRANCH  29  30
ATOM     30  O   UNL d   1     -21.040  -6.903  29.639  0.00  0.00    -0.400 OA
ATOM     31  H   UNL d   1     -20.520  -6.800  29.317  0.00  0.00     0.209 HD
ENDBRANCH  29  30
ENDBRANCH   9  29
BRANCH  17  32
ATOM     32  O   UNL d   1     -23.329  -7.662  28.877  0.00  0.00    -0.392 OA
ATOM     33  H   UNL d   1     -23.743  -7.432  29.278  0.00  0.00     0.210 HD
ENDBRANCH  17  32
BRANCH  19  34
ATOM     34  O   UNL d   1     -24.420  -7.432  27.108  0.00  0.00    -0.393 OA
ATOM     35  H   UNL d   1     -24.947  -7.135  27.244  0.00  0.00     0.210 HD
ENDBRANCH  19  34
BRANCH  14  36
ATOM     36  C   UNL d   1     -18.969  -2.546  23.731  0.00  0.00     0.149 C 
ATOM     37  O   UNL d   1     -18.937  -1.622  24.114  0.00  0.00    -0.649 OA
BRANCH  36  38
ATOM     38  O   UNL d   1     -18.125  -2.997  23.443  0.00  0.00    -0.776 OA
ATOM     39  H   UNL d   1     -17.809  -3.347  23.845  0.00  0.00     0.167 HD
ENDBRANCH  36  38
ENDBRANCH  14  36
TORSDOF 6
ENDMDL
