MODEL 1
REMARK VINA RESULT:    -4.627      0.000      0.000
REMARK INTER + INTRA:          -4.763
REMARK INTER:                  -4.763
REMARK INTRA:                   0.000
REMARK UNBOUND:                 0.000
REMARK  1 active torsions:
REMARK  status: ('A' for Active; 'I' for Inactive)
REMARK    1  A    between atoms: O_1  and  N_3 
REMARK       I    between atoms: N_3  and  C_4 
ROOT
ATOM      1  O   UNL d   1       2.476   3.396 -21.386  0.00  0.00    -0.272 OA
ATOM      2  N   UNL d   1       1.116   2.698 -20.573  0.00  0.00    -0.238 N 
ATOM      3  C   UNL d   1       1.873   2.616 -21.220  0.00  0.00     0.236 C 
ATOM      4  C   UNL d   1       2.028   1.753 -21.702  0.00  0.00     0.119 C 
ATOM      5  H   UNL d   1       0.742   2.214 -20.470  0.00  0.00     0.197 HD
ENDROOT
BRANCH   2   6
ATOM      6  O   UNL d   1       0.961   3.560 -20.091  0.00  0.00    -0.287 OA
ATOM      7  H   UNL d   1       0.879   4.084 -20.412  0.00  0.00     0.244 HD
ENDBRANCH   2   6
TORSDOF 1
ENDMDL
MODEL 2
REMARK VINA RESULT:    -4.457     47.288     47.538
REMARK INTER + INTRA:          -4.587
REMARK INTER:                  -4.587
REMARK INTRA:                   0.000
REMARK UNBOUND:                 0.000
REMARK  1 active torsions:
REMARK  status: ('A' for Active; 'I' for Inactive)
REMARK    1  A    between atoms: O_1  and  N_3 
REMARK       I    between atoms: N_3  and  C_4 
ROOT
ATOM      1  O   UNL d   1     -37.925 -23.691 -26.730  0.00  0.00    -0.272 OA
ATOM      2  N   UNL d   1     -38.410 -22.155 -26.094  0.00  0.00    -0.238 N 
ATOM      3  C   UNL d   1     -37.703 -22.846 -26.243  0.00  0.00     0.236 C 
ATOM      4  C   UNL d   1     -36.774 -22.692 -25.907  0.00  0.00     0.119 C 
ATOM      5  H   UNL d   1     -38.273 -21.631 -25.792  0.00  0.00     0.197 HD
ENDROOT
BRANCH   2   6
ATOM      6  O   UNL d   1     -39.339 -22.309 -26.431  0.00  0.00    -0.287 OA
ATOM      7  H   UNL d   1     -39.535 -22.885 -26.548  0.00  0.00     0.244 HD
ENDBRANCH   2   6
TORSDOF 1
ENDMDL
MODEL 3
REMARK VINA RESULT:    -4.324     29.488     29.813
REMARK INTER + INTRA:          -4.450
REMARK INTER:                  -4.450
REMARK INTRA:                   0.000
REMARK UNBOUND:                 0.000
REMARK  1 active torsions:
REMARK  status: ('A' for Active; 'I' for Inactive)
REMARK    1  A    between atoms: O_1  and  N_3 
REMARK       I    between atoms: N_3  and  C_4 
ROOT
ATOM      1  O   UNL d   1     -18.165 -14.521  -9.269  0.00  0.00    -0.272 OA
ATOM      2  N   UNL d   1     -19.618 -15.441  -9.062  0.00  0.00    -0.238 N 
ATOM      3  C   UNL d   1     -18.720 -15.324  -9.487  0.00  0.00     0.236 C 
ATOM      4  C   UNL d   1     -18.378 -16.009 -10.129  0.00  0.00     0.119 C 
ATOM      5  H   UNL d   1     -19.963 -15.939  -9.197  0.00  0.00     0.197 HD
ENDROOT
BRANCH   2   6
ATOM      6  O   UNL d   1     -19.961 -14.756  -8.420  0.00  0.00    -0.287 OA
ATOM      7  H   UNL d   1     -20.265 -14.258  -8.630  0.00  0.00     0.244 HD
ENDBRANCH   2   6
TORSDOF 1
ENDMDL
MODEL 4
REMARK VINA RESULT:    -3.818     21.697     21.830
REMARK INTER + INTRA:          -3.929
REMARK INTER:                  -3.929
REMARK INTRA:                   0.000
REMARK UNBOUND:                 0.000
REMARK  1 active torsions:
REMARK  status: ('A' for Active; 'I' for Inactive)
REMARK    1  A    between atoms: O_1  and  N_3 
REMARK       I    between atoms: N_3  and  C_4 
ROOT
ATOM      1  O   UNL d   1       7.206 -13.756  -7.265  0.00  0.00    -0.272 OA
ATOM      2  N   UNL d   1       5.557 -13.730  -7.796  0.00  0.00    -0.238 N 
ATOM      3  C   UNL d   1       6.474 -14.128  -7.836  0.00  0.00     0.236 C 
ATOM      4  C   UNL d   1       6.658 -14.898  -8.446  0.00  0.00     0.119 C 
ATOM      5  H   UNL d   1       5.104 -13.960  -8.150  0.00  0.00     0.197 HD
ENDROOT
BRANCH   2   6
ATOM      6  O   UNL d   1       5.373 -12.959  -7.185  0.00  0.00    -0.287 OA
ATOM      7  H   UNL d   1       4.840 -12.934  -6.870  0.00  0.00     0.244 HD
ENDBRANCH   2   6
TORSDOF 1
ENDMDL
MODEL 5
REMARK VINA RESULT:    -3.817      8.387      8.498
REMARK INTER + INTRA:          -3.928
REMARK INTER:                  -3.928
REMARK INTRA:                   0.000
REMARK UNBOUND:                 0.000
REMARK  1 active torsions:
REMARK  status: ('A' for Active; 'I' for Inactive)
REMARK    1  A    between atoms: O_1  and  N_3 
REMARK       I    between atoms: N_3  and  C_4 
ROOT
ATOM      1  O   UNL d   1       3.164  -3.225 -15.500  0.00  0.00    -0.272 OA
ATOM      2  N   UNL d   1       2.545  -2.486 -14.061  0.00  0.00    -0.238 N 
ATOM      3  C   UNL d   1       2.456  -2.693 -15.035  0.00  0.00     0.236 C 
ATOM      4  C   UNL d   1       1.659  -2.368 -15.544  0.00  0.00     0.119 C 
ATOM      5  H   UNL d   1       2.106  -2.156 -13.773  0.00  0.00     0.197 HD
ENDROOT
BRANCH   2   6
ATOM      6  O   UNL d   1       3.342  -2.811 -13.551  0.00  0.00    -0.287 OA
ATOM      7  H   UNL d   1       3.477  -3.416 -13.539  0.00  0.00     0.244 HD
ENDBRANCH   2   6
TORSDOF 1
ENDMDL
