MODEL 1
REMARK VINA RESULT:    -8.578      0.000      0.000
REMARK INTER + INTRA:          -8.474
REMARK INTER:                 -10.698
REMARK INTRA:                   2.224
REMARK UNBOUND:                 1.859
REMARK  5 active torsions:
REMARK  status: ('A' for Active; 'I' for Inactive)
REMARK    1  A    between atoms: O_2  and  C_13 
REMARK    2  A    between atoms: O_3  and  C_19 
REMARK    3  A    between atoms: O_5  and  C_17 
REMARK    4  A    between atoms: O_6  and  C_21 
REMARK    5  A    between atoms: C_8  and  C_10 
ROOT
ATOM      1  O   UNL d   1     -30.627 -11.783  29.868  0.00  0.00    -0.309 OA
ATOM      2  O   UNL d   1     -28.306 -13.680  29.746  0.00  0.00    -0.287 OA
ATOM      3  C   UNL d   1     -30.010 -13.386  29.646  0.00  0.00     0.081 A 
ATOM      4  C   UNL d   1     -29.696 -11.444  30.009  0.00  0.00     0.090 A 
ATOM      5  C   UNL d   1     -30.784 -12.753  29.686  0.00  0.00     0.095 A 
ATOM      6  C   UNL d   1     -29.080 -13.048  29.787  0.00  0.00     0.190 A 
ATOM      7  C   UNL d   1     -28.923 -12.077  29.969  0.00  0.00     0.094 A 
ATOM      8  C   UNL d   1     -30.158 -14.399  29.457  0.00  0.00     0.085 A 
ATOM      9  C   UNL d   1     -31.759 -13.091  29.541  0.00  0.00     0.075 A 
ATOM     10  C   UNL d   1     -31.930 -14.100  29.352  0.00  0.00     0.071 A 
ATOM     11  C   UNL d   1     -31.125 -14.759  29.309  0.00  0.00     0.074 A 
ENDROOT
BRANCH   4  12
ATOM     12  C   UNL d   1     -29.540 -10.474  30.191  0.00  0.00     0.001 A 
ATOM     13  C   UNL d   1     -28.678 -10.046  29.915  0.00  0.00     0.054 A 
ATOM     14  C   UNL d   1     -28.522  -9.075  30.097  0.00  0.00     0.102 A 
ATOM     15  C   UNL d   1     -29.226  -8.532  30.554  0.00  0.00     0.099 A 
ATOM     16  C   UNL d   1     -30.087  -8.960  30.830  0.00  0.00     0.040 A 
ATOM     17  C   UNL d   1     -30.244  -9.930  30.648  0.00  0.00     0.017 A 
BRANCH  14  18
ATOM     18  O   UNL d   1     -27.661  -8.648  29.822  0.00  0.00    -0.353 OA
ATOM     19  C   UNL d   1     -26.818  -9.187  29.802  0.00  0.00     0.210 C 
ENDBRANCH  14  18
BRANCH  15  20
ATOM     20  O   UNL d   1     -29.069  -7.561  30.736  0.00  0.00    -0.358 OA
ATOM     21  H   UNL d   1     -28.718  -7.226  30.350  0.00  0.00     0.217 HD
ENDBRANCH  15  20
ENDBRANCH   4  12
BRANCH   8  22
ATOM     22  O   UNL d   1     -29.377 -15.023  29.419  0.00  0.00    -0.360 OA
ATOM     23  H   UNL d   1     -29.335 -15.438  28.961  0.00  0.00     0.217 HD
ENDBRANCH   8  22
BRANCH  10  24
ATOM     24  O   UNL d   1     -32.862 -14.435  29.211  0.00  0.00    -0.361 OA
ATOM     25  H   UNL d   1     -33.077 -14.904  29.553  0.00  0.00     0.217 HD
ENDBRANCH  10  24
TORSDOF 5
ENDMDL
MODEL 2
REMARK VINA RESULT:    -8.552      1.007      5.454
REMARK INTER + INTRA:          -8.443
REMARK INTER:                 -10.785
REMARK INTRA:                   2.341
REMARK UNBOUND:                 1.859
REMARK  5 active torsions:
REMARK  status: ('A' for Active; 'I' for Inactive)
REMARK    1  A    between atoms: O_2  and  C_13 
REMARK    2  A    between atoms: O_3  and  C_19 
REMARK    3  A    between atoms: O_5  and  C_17 
REMARK    4  A    between atoms: O_6  and  C_21 
REMARK    5  A    between atoms: C_8  and  C_10 
ROOT
ATOM      1  O   UNL d   1     -28.670 -11.470  29.501  0.00  0.00    -0.309 OA
ATOM      2  O   UNL d   1     -30.670  -9.700  30.866  0.00  0.00    -0.287 OA
ATOM      3  C   UNL d   1     -29.120  -9.919  30.127  0.00  0.00     0.081 A 
ATOM      4  C   UNL d   1     -29.554 -11.841  29.785  0.00  0.00     0.090 A 
ATOM      5  C   UNL d   1     -28.453 -10.509  29.671  0.00  0.00     0.095 A 
ATOM      6  C   UNL d   1     -30.003 -10.290  30.411  0.00  0.00     0.190 A 
ATOM      7  C   UNL d   1     -30.220 -11.251  30.241  0.00  0.00     0.094 A 
ATOM      8  C   UNL d   1     -28.908  -8.916  30.311  0.00  0.00     0.085 A 
ATOM      9  C   UNL d   1     -27.528 -10.137  29.369  0.00  0.00     0.075 A 
ATOM     10  C   UNL d   1     -27.295  -9.137  29.543  0.00  0.00     0.071 A 
ATOM     11  C   UNL d   1     -27.989  -8.522  30.017  0.00  0.00     0.074 A 
ENDROOT
BRANCH   4  12
ATOM     12  C   UNL d   1     -29.771 -12.802  29.615  0.00  0.00     0.001 A 
ATOM     13  C   UNL d   1     -30.723 -13.107  29.614  0.00  0.00     0.054 A 
ATOM     14  C   UNL d   1     -30.940 -14.069  29.443  0.00  0.00     0.102 A 
ATOM     15  C   UNL d   1     -30.204 -14.725  29.274  0.00  0.00     0.099 A 
ATOM     16  C   UNL d   1     -29.252 -14.420  29.275  0.00  0.00     0.040 A 
ATOM     17  C   UNL d   1     -29.035 -13.458  29.445  0.00  0.00     0.017 A 
BRANCH  14  18
ATOM     18  O   UNL d   1     -31.892 -14.374  29.442  0.00  0.00    -0.353 OA
ATOM     19  C   UNL d   1     -32.497 -14.128  30.200  0.00  0.00     0.210 C 
ENDBRANCH  14  18
BRANCH  15  20
ATOM     20  O   UNL d   1     -30.421 -15.686  29.103  0.00  0.00    -0.358 OA
ATOM     21  H   UNL d   1     -30.621 -16.046  29.567  0.00  0.00     0.217 HD
ENDBRANCH  15  20
ENDBRANCH   4  12
BRANCH   8  22
ATOM     22  O   UNL d   1     -29.582  -8.335  30.767  0.00  0.00    -0.360 OA
ATOM     23  H   UNL d   1     -29.837  -8.518  31.301  0.00  0.00     0.217 HD
ENDBRANCH   8  22
BRANCH  10  24
ATOM     24  O   UNL d   1     -26.410  -8.769  29.257  0.00  0.00    -0.361 OA
ATOM     25  H   UNL d   1     -26.095  -9.042  28.797  0.00  0.00     0.217 HD
ENDBRANCH  10  24
TORSDOF 5
ENDMDL
MODEL 3
REMARK VINA RESULT:    -8.384      1.398      1.912
REMARK INTER + INTRA:          -8.240
REMARK INTER:                 -10.076
REMARK INTRA:                   1.835
REMARK UNBOUND:                 1.859
REMARK  5 active torsions:
REMARK  status: ('A' for Active; 'I' for Inactive)
REMARK    1  A    between atoms: O_2  and  C_13 
REMARK    2  A    between atoms: O_3  and  C_19 
REMARK    3  A    between atoms: O_5  and  C_17 
REMARK    4  A    between atoms: O_6  and  C_21 
REMARK    5  A    between atoms: C_8  and  C_10 
ROOT
ATOM      1  O   UNL d   1     -30.270 -12.087  29.766  0.00  0.00    -0.309 OA
ATOM      2  O   UNL d   1     -29.848 -13.331  32.463  0.00  0.00    -0.287 OA
ATOM      3  C   UNL d   1     -30.699 -13.271  30.955  0.00  0.00     0.081 A 
ATOM      4  C   UNL d   1     -29.561 -11.732  30.375  0.00  0.00     0.090 A 
ATOM      5  C   UNL d   1     -30.839 -12.856  30.056  0.00  0.00     0.095 A 
ATOM      6  C   UNL d   1     -29.989 -12.917  31.564  0.00  0.00     0.190 A 
ATOM      7  C   UNL d   1     -29.420 -12.147  31.274  0.00  0.00     0.094 A 
ATOM      8  C   UNL d   1     -31.284 -14.073  31.271  0.00  0.00     0.085 A 
ATOM      9  C   UNL d   1     -31.575 -13.215  29.411  0.00  0.00     0.075 A 
ATOM     10  C   UNL d   1     -32.171 -14.016  29.706  0.00  0.00     0.071 A 
ATOM     11  C   UNL d   1     -32.025 -14.448  30.642  0.00  0.00     0.074 A 
ENDROOT
BRANCH   4  12
ATOM     12  C   UNL d   1     -28.992 -10.963  30.085  0.00  0.00     0.001 A 
ATOM     13  C   UNL d   1     -29.335 -10.027  30.169  0.00  0.00     0.054 A 
ATOM     14  C   UNL d   1     -28.766  -9.258  29.879  0.00  0.00     0.102 A 
ATOM     15  C   UNL d   1     -27.854  -9.424  29.504  0.00  0.00     0.099 A 
ATOM     16  C   UNL d   1     -27.510 -10.359  29.421  0.00  0.00     0.040 A 
ATOM     17  C   UNL d   1     -28.079 -11.129  29.711  0.00  0.00     0.017 A 
BRANCH  14  18
ATOM     18  O   UNL d   1     -29.110  -8.323  29.962  0.00  0.00    -0.353 OA
ATOM     19  C   UNL d   1     -30.063  -8.161  30.217  0.00  0.00     0.210 C 
ENDBRANCH  14  18
BRANCH  15  20
ATOM     20  O   UNL d   1     -27.285  -8.655  29.214  0.00  0.00    -0.358 OA
ATOM     21  H   UNL d   1     -27.045  -8.270  29.637  0.00  0.00     0.217 HD
ENDBRANCH  15  20
ENDBRANCH   4  12
BRANCH   8  22
ATOM     22  O   UNL d   1     -31.134 -14.480  32.172  0.00  0.00    -0.360 OA
ATOM     23  H   UNL d   1     -30.599 -14.765  32.298  0.00  0.00     0.217 HD
ENDBRANCH   8  22
BRANCH  10  24
ATOM     24  O   UNL d   1     -32.880 -14.367  29.094  0.00  0.00    -0.361 OA
ATOM     25  H   UNL d   1     -32.771 -14.407  28.485  0.00  0.00     0.217 HD
ENDBRANCH  10  24
TORSDOF 5
ENDMDL
MODEL 4
REMARK VINA RESULT:    -8.268      1.383      2.321
REMARK INTER + INTRA:          -8.101
REMARK INTER:                  -9.922
REMARK INTRA:                   1.821
REMARK UNBOUND:                 1.859
REMARK  5 active torsions:
REMARK  status: ('A' for Active; 'I' for Inactive)
REMARK    1  A    between atoms: O_2  and  C_13 
REMARK    2  A    between atoms: O_3  and  C_19 
REMARK    3  A    between atoms: O_5  and  C_17 
REMARK    4  A    between atoms: O_6  and  C_21 
REMARK    5  A    between atoms: C_8  and  C_10 
ROOT
ATOM      1  O   UNL d   1     -28.849 -12.291  29.646  0.00  0.00    -0.309 OA
ATOM      2  O   UNL d   1     -31.442 -11.590  30.981  0.00  0.00    -0.287 OA
ATOM      3  C   UNL d   1     -30.445 -12.736  30.151  0.00  0.00     0.081 A 
ATOM      4  C   UNL d   1     -28.982 -11.378  30.031  0.00  0.00     0.090 A 
ATOM      5  C   UNL d   1     -29.580 -12.970  29.705  0.00  0.00     0.095 A 
ATOM      6  C   UNL d   1     -30.578 -11.823  30.536  0.00  0.00     0.190 A 
ATOM      7  C   UNL d   1     -29.846 -11.144  30.476  0.00  0.00     0.094 A 
ATOM      8  C   UNL d   1     -31.215 -13.433  30.220  0.00  0.00     0.085 A 
ATOM      9  C   UNL d   1     -29.427 -13.917  29.299  0.00  0.00     0.075 A 
ATOM     10  C   UNL d   1     -30.184 -14.630  29.358  0.00  0.00     0.071 A 
ATOM     11  C   UNL d   1     -31.084 -14.387  29.821  0.00  0.00     0.074 A 
ENDROOT
BRANCH   4  12
ATOM     12  C   UNL d   1     -28.251 -10.698  29.972  0.00  0.00     0.001 A 
ATOM     13  C   UNL d   1     -27.541 -10.664  30.675  0.00  0.00     0.054 A 
ATOM     14  C   UNL d   1     -26.810  -9.985  30.616  0.00  0.00     0.102 A 
ATOM     15  C   UNL d   1     -26.788  -9.340  29.852  0.00  0.00     0.099 A 
ATOM     16  C   UNL d   1     -27.497  -9.374  29.148  0.00  0.00     0.040 A 
ATOM     17  C   UNL d   1     -28.229 -10.053  29.208  0.00  0.00     0.017 A 
BRANCH  14  18
ATOM     18  O   UNL d   1     -26.100  -9.951  31.319  0.00  0.00    -0.353 OA
ATOM     19  C   UNL d   1     -26.071 -10.650  32.034  0.00  0.00     0.210 C 
ENDBRANCH  14  18
BRANCH  15  20
ATOM     20  O   UNL d   1     -26.056  -8.660  29.792  0.00  0.00    -0.358 OA
ATOM     21  H   UNL d   1     -25.545  -8.724  30.137  0.00  0.00     0.217 HD
ENDBRANCH  15  20
ENDBRANCH   4  12
BRANCH   8  22
ATOM     22  O   UNL d   1     -32.075 -13.189  30.668  0.00  0.00    -0.360 OA
ATOM     23  H   UNL d   1     -32.444 -13.632  30.895  0.00  0.00     0.217 HD
ENDBRANCH   8  22
BRANCH  10  24
ATOM     24  O   UNL d   1     -30.047 -15.542  28.971  0.00  0.00    -0.361 OA
ATOM     25  H   UNL d   1     -30.079 -15.626  28.357  0.00  0.00     0.217 HD
ENDBRANCH  10  24
TORSDOF 5
ENDMDL
MODEL 5
REMARK VINA RESULT:    -8.095      1.318      5.062
REMARK INTER + INTRA:          -7.892
REMARK INTER:                  -9.801
REMARK INTRA:                   1.909
REMARK UNBOUND:                 1.859
REMARK  5 active torsions:
REMARK  status: ('A' for Active; 'I' for Inactive)
REMARK    1  A    between atoms: O_2  and  C_13 
REMARK    2  A    between atoms: O_3  and  C_19 
REMARK    3  A    between atoms: O_5  and  C_17 
REMARK    4  A    between atoms: O_6  and  C_21 
REMARK    5  A    between atoms: C_8  and  C_10 
ROOT
ATOM      1  O   UNL d   1     -30.480 -10.680  30.220  0.00  0.00    -0.309 OA
ATOM      2  O   UNL d   1     -27.599 -11.380  29.759  0.00  0.00    -0.287 OA
ATOM      3  C   UNL d   1     -28.829 -10.191  30.026  0.00  0.00     0.081 A 
ATOM      4  C   UNL d   1     -30.209 -11.636  30.106  0.00  0.00     0.090 A 
ATOM      5  C   UNL d   1     -29.789  -9.957  30.179  0.00  0.00     0.095 A 
ATOM      6  C   UNL d   1     -28.559 -11.147  29.913  0.00  0.00     0.190 A 
ATOM      7  C   UNL d   1     -29.249 -11.869  29.953  0.00  0.00     0.094 A 
ATOM      8  C   UNL d   1     -28.100  -9.449  29.982  0.00  0.00     0.085 A 
ATOM      9  C   UNL d   1     -30.086  -8.966  30.299  0.00  0.00     0.075 A 
ATOM     10  C   UNL d   1     -29.373  -8.208  30.259  0.00  0.00     0.071 A 
ATOM     11  C   UNL d   1     -28.374  -8.451  30.099  0.00  0.00     0.074 A 
ENDROOT
BRANCH   4  12
ATOM     12  C   UNL d   1     -30.900 -12.358  30.146  0.00  0.00     0.001 A 
ATOM     13  C   UNL d   1     -31.406 -12.520  30.994  0.00  0.00     0.054 A 
ATOM     14  C   UNL d   1     -32.096 -13.242  31.034  0.00  0.00     0.102 A 
ATOM     15  C   UNL d   1     -32.280 -13.803  30.227  0.00  0.00     0.099 A 
ATOM     16  C   UNL d   1     -31.774 -13.642  29.380  0.00  0.00     0.040 A 
ATOM     17  C   UNL d   1     -31.083 -12.920  29.339  0.00  0.00     0.017 A 
BRANCH  14  18
ATOM     18  O   UNL d   1     -32.602 -13.404  31.881  0.00  0.00    -0.353 OA
ATOM     19  C   UNL d   1     -32.497 -12.778  32.653  0.00  0.00     0.210 C 
ENDBRANCH  14  18
BRANCH  15  20
ATOM     20  O   UNL d   1     -32.970 -14.526  30.267  0.00  0.00    -0.358 OA
ATOM     21  H   UNL d   1     -33.556 -14.405  30.103  0.00  0.00     0.217 HD
ENDBRANCH  15  20
ENDBRANCH   4  12
BRANCH   8  22
ATOM     22  O   UNL d   1     -27.142  -9.694  29.828  0.00  0.00    -0.360 OA
ATOM     23  H   UNL d   1     -26.925 -10.237  30.032  0.00  0.00     0.217 HD
ENDBRANCH   8  22
BRANCH  10  24
ATOM     24  O   UNL d   1     -29.647  -7.252  30.373  0.00  0.00    -0.361 OA
ATOM     25  H   UNL d   1     -29.290  -6.864  30.697  0.00  0.00     0.217 HD
ENDBRANCH  10  24
TORSDOF 5
ENDMDL
