MODEL 1
REMARK VINA RESULT:    -8.770      0.000      0.000
REMARK INTER + INTRA:          -8.653
REMARK INTER:                  -9.758
REMARK INTRA:                   1.105
REMARK UNBOUND:                 1.143
REMARK  3 active torsions:
REMARK  status: ('A' for Active; 'I' for Inactive)
REMARK    1  A    between atoms: O_2  and  C_10 
REMARK    2  A    between atoms: O_4  and  C_13 
REMARK    3  A    between atoms: C_7  and  C_9 
ROOT
ATOM      1  O   UNL d   1     -20.810  -6.229  21.382  0.00  0.00    -0.309 OA
ATOM      2  O   UNL d   1     -21.438  -3.816  23.049  0.00  0.00    -0.287 OA
ATOM      3  C   UNL d   1     -20.962  -4.511  21.536  0.00  0.00     0.081 A 
ATOM      4  C   UNL d   1     -20.753  -5.315  20.980  0.00  0.00     0.095 A 
ATOM      5  C   UNL d   1     -21.076  -6.338  22.339  0.00  0.00     0.090 A 
ATOM      6  C   UNL d   1     -21.229  -4.620  22.493  0.00  0.00     0.190 A 
ATOM      7  C   UNL d   1     -20.907  -3.553  21.131  0.00  0.00     0.085 A 
ATOM      8  C   UNL d   1     -21.286  -5.534  22.895  0.00  0.00     0.094 A 
ATOM      9  C   UNL d   1     -20.474  -5.217  19.981  0.00  0.00     0.075 A 
ATOM     10  C   UNL d   1     -20.413  -4.268  19.556  0.00  0.00     0.071 A 
ATOM     11  C   UNL d   1     -20.631  -3.431  20.134  0.00  0.00     0.074 A 
ENDROOT
BRANCH   5  12
ATOM     12  C   UNL d   1     -21.133  -7.252  22.741  0.00  0.00    -0.002 A 
ATOM     13  C   UNL d   1     -20.564  -7.489  23.528  0.00  0.00     0.014 A 
ATOM     14  C   UNL d   1     -20.621  -8.403  23.930  0.00  0.00     0.001 A 
ATOM     15  C   UNL d   1     -21.247  -9.080  23.545  0.00  0.00     0.000 A 
ATOM     16  C   UNL d   1     -21.817  -8.844  22.757  0.00  0.00     0.001 A 
ATOM     17  C   UNL d   1     -21.760  -7.930  22.356  0.00  0.00     0.014 A 
ENDBRANCH   5  12
BRANCH   7  18
ATOM     18  O   UNL d   1     -21.119  -2.755  21.696  0.00  0.00    -0.360 OA
ATOM     19  H   UNL d   1     -21.694  -2.525  21.703  0.00  0.00     0.217 HD
ENDBRANCH   7  18
BRANCH  10  20
ATOM     20  O   UNL d   1     -20.146  -4.163  18.597  0.00  0.00    -0.361 OA
ATOM     21  H   UNL d   1     -20.378  -4.545  18.168  0.00  0.00     0.217 HD
ENDBRANCH  10  20
TORSDOF 3
ENDMDL
MODEL 2
REMARK VINA RESULT:    -8.598      0.909      2.040
REMARK INTER + INTRA:          -8.461
REMARK INTER:                  -9.534
REMARK INTRA:                   1.073
REMARK UNBOUND:                 1.143
REMARK  3 active torsions:
REMARK  status: ('A' for Active; 'I' for Inactive)
REMARK    1  A    between atoms: O_2  and  C_10 
REMARK    2  A    between atoms: O_4  and  C_13 
REMARK    3  A    between atoms: C_7  and  C_9 
ROOT
ATOM      1  O   UNL d   1     -21.356  -5.565  22.739  0.00  0.00    -0.309 OA
ATOM      2  O   UNL d   1     -20.104  -5.361  20.020  0.00  0.00    -0.287 OA
ATOM      3  C   UNL d   1     -20.831  -4.603  21.398  0.00  0.00     0.081 A 
ATOM      4  C   UNL d   1     -21.248  -4.671  22.304  0.00  0.00     0.095 A 
ATOM      5  C   UNL d   1     -21.046  -6.391  22.268  0.00  0.00     0.090 A 
ATOM      6  C   UNL d   1     -20.521  -5.429  20.926  0.00  0.00     0.190 A 
ATOM      7  C   UNL d   1     -20.712  -3.679  20.933  0.00  0.00     0.085 A 
ATOM      8  C   UNL d   1     -20.629  -6.323  21.361  0.00  0.00     0.094 A 
ATOM      9  C   UNL d   1     -21.576  -3.820  22.808  0.00  0.00     0.075 A 
ATOM     10  C   UNL d   1     -21.467  -2.885  22.361  0.00  0.00     0.071 A 
ATOM     11  C   UNL d   1     -21.032  -2.814  21.417  0.00  0.00     0.074 A 
ENDROOT
BRANCH   5  12
ATOM     12  C   UNL d   1     -21.154  -7.285  22.702  0.00  0.00    -0.002 A 
ATOM     13  C   UNL d   1     -20.653  -7.496  23.542  0.00  0.00     0.014 A 
ATOM     14  C   UNL d   1     -20.761  -8.390  23.977  0.00  0.00     0.001 A 
ATOM     15  C   UNL d   1     -21.370  -9.073  23.572  0.00  0.00     0.000 A 
ATOM     16  C   UNL d   1     -21.871  -8.862  22.733  0.00  0.00     0.001 A 
ATOM     17  C   UNL d   1     -21.763  -7.968  22.298  0.00  0.00     0.014 A 
ENDBRANCH   5  12
BRANCH   7  18
ATOM     18  O   UNL d   1     -20.294  -3.623  20.026  0.00  0.00    -0.360 OA
ATOM     19  H   UNL d   1     -20.625  -3.418  19.544  0.00  0.00     0.217 HD
ENDBRANCH   7  18
BRANCH  10  20
ATOM     20  O   UNL d   1     -21.778  -2.062  22.836  0.00  0.00    -0.361 OA
ATOM     21  H   UNL d   1     -22.098  -2.111  23.364  0.00  0.00     0.217 HD
ENDBRANCH  10  20
TORSDOF 3
ENDMDL
MODEL 3
REMARK VINA RESULT:    -8.462     12.244     14.487
REMARK INTER + INTRA:          -8.309
REMARK INTER:                  -9.645
REMARK INTRA:                   1.336
REMARK UNBOUND:                 1.143
REMARK  3 active torsions:
REMARK  status: ('A' for Active; 'I' for Inactive)
REMARK    1  A    between atoms: O_2  and  C_10 
REMARK    2  A    between atoms: O_4  and  C_13 
REMARK    3  A    between atoms: C_7  and  C_9 
ROOT
ATOM      1  O   UNL d   1     -30.459 -12.167  29.822  0.00  0.00    -0.309 OA
ATOM      2  O   UNL d   1     -28.467 -14.356  29.329  0.00  0.00    -0.287 OA
ATOM      3  C   UNL d   1     -30.110 -13.829  29.480  0.00  0.00     0.081 A 
ATOM      4  C   UNL d   1     -30.774 -13.100  29.644  0.00  0.00     0.095 A 
ATOM      5  C   UNL d   1     -29.480 -11.965  29.835  0.00  0.00     0.090 A 
ATOM      6  C   UNL d   1     -29.131 -13.626  29.493  0.00  0.00     0.190 A 
ATOM      7  C   UNL d   1     -30.424 -14.805  29.294  0.00  0.00     0.085 A 
ATOM      8  C   UNL d   1     -28.816 -12.694  29.671  0.00  0.00     0.094 A 
ATOM      9  C   UNL d   1     -31.798 -13.296  29.633  0.00  0.00     0.075 A 
ATOM     10  C   UNL d   1     -32.133 -14.264  29.449  0.00  0.00     0.071 A 
ATOM     11  C   UNL d   1     -31.442 -15.023  29.278  0.00  0.00     0.074 A 
ENDROOT
BRANCH   5  12
ATOM     12  C   UNL d   1     -29.165 -11.032  30.013  0.00  0.00    -0.002 A 
ATOM     13  C   UNL d   1     -28.290 -10.721  29.643  0.00  0.00     0.014 A 
ATOM     14  C   UNL d   1     -27.975  -9.789  29.820  0.00  0.00     0.001 A 
ATOM     15  C   UNL d   1     -28.535  -9.168  30.369  0.00  0.00     0.000 A 
ATOM     16  C   UNL d   1     -29.410  -9.479  30.739  0.00  0.00     0.001 A 
ATOM     17  C   UNL d   1     -29.725 -10.411  30.562  0.00  0.00     0.014 A 
ENDBRANCH   5  12
BRANCH   7  18
ATOM     18  O   UNL d   1     -29.751 -15.526  29.131  0.00  0.00    -0.360 OA
ATOM     19  H   UNL d   1     -29.287 -15.432  28.731  0.00  0.00     0.217 HD
ENDBRANCH   7  18
BRANCH  10  20
ATOM     20  O   UNL d   1     -33.114 -14.463  29.436  0.00  0.00    -0.361 OA
ATOM     21  H   UNL d   1     -33.393 -14.608  28.903  0.00  0.00     0.217 HD
ENDBRANCH  10  20
TORSDOF 3
ENDMDL
MODEL 4
REMARK VINA RESULT:    -8.223      2.025      3.786
REMARK INTER + INTRA:          -8.042
REMARK INTER:                  -9.138
REMARK INTRA:                   1.096
REMARK UNBOUND:                 1.143
REMARK  3 active torsions:
REMARK  status: ('A' for Active; 'I' for Inactive)
REMARK    1  A    between atoms: O_2  and  C_10 
REMARK    2  A    between atoms: O_4  and  C_13 
REMARK    3  A    between atoms: C_7  and  C_9 
ROOT
ATOM      1  O   UNL d   1     -21.530  -3.835  22.513  0.00  0.00    -0.309 OA
ATOM      2  O   UNL d   1     -21.367  -6.732  23.275  0.00  0.00    -0.287 OA
ATOM      3  C   UNL d   1     -21.117  -5.469  22.116  0.00  0.00     0.081 A 
ATOM      4  C   UNL d   1     -21.172  -4.504  21.862  0.00  0.00     0.095 A 
ATOM      5  C   UNL d   1     -21.834  -4.132  23.418  0.00  0.00     0.090 A 
ATOM      6  C   UNL d   1     -21.421  -5.766  23.021  0.00  0.00     0.190 A 
ATOM      7  C   UNL d   1     -20.746  -6.177  21.448  0.00  0.00     0.085 A 
ATOM      8  C   UNL d   1     -21.780  -5.097  23.672  0.00  0.00     0.094 A 
ATOM      9  C   UNL d   1     -20.859  -4.179  20.923  0.00  0.00     0.075 A 
ATOM     10  C   UNL d   1     -20.484  -4.870  20.239  0.00  0.00     0.071 A 
ATOM     11  C   UNL d   1     -20.427  -5.875  20.503  0.00  0.00     0.074 A 
ENDROOT
BRANCH   5  12
ATOM     12  C   UNL d   1     -22.193  -3.463  24.069  0.00  0.00    -0.002 A 
ATOM     13  C   UNL d   1     -21.735  -3.325  24.948  0.00  0.00     0.014 A 
ATOM     14  C   UNL d   1     -22.093  -2.656  25.599  0.00  0.00     0.001 A 
ATOM     15  C   UNL d   1     -22.910  -2.125  25.372  0.00  0.00     0.000 A 
ATOM     16  C   UNL d   1     -23.368  -2.263  24.494  0.00  0.00     0.001 A 
ATOM     17  C   UNL d   1     -23.009  -2.932  23.842  0.00  0.00     0.014 A 
ENDBRANCH   5  12
BRANCH   7  18
ATOM     18  O   UNL d   1     -20.696  -7.140  21.713  0.00  0.00    -0.360 OA
ATOM     19  H   UNL d   1     -20.167  -7.373  21.936  0.00  0.00     0.217 HD
ENDBRANCH   7  18
BRANCH  10  20
ATOM     20  O   UNL d   1     -20.181  -4.569  19.335  0.00  0.00    -0.361 OA
ATOM     21  H   UNL d   1     -20.444  -4.075  19.069  0.00  0.00     0.217 HD
ENDBRANCH  10  20
TORSDOF 3
ENDMDL
MODEL 5
REMARK VINA RESULT:    -8.015     11.237     12.988
REMARK INTER + INTRA:          -7.810
REMARK INTER:                  -8.812
REMARK INTRA:                   1.002
REMARK UNBOUND:                 1.143
REMARK  3 active torsions:
REMARK  status: ('A' for Active; 'I' for Inactive)
REMARK    1  A    between atoms: O_2  and  C_10 
REMARK    2  A    between atoms: O_4  and  C_13 
REMARK    3  A    between atoms: C_7  and  C_9 
ROOT
ATOM      1  O   UNL d   1     -29.087 -11.212  29.836  0.00  0.00    -0.309 OA
ATOM      2  O   UNL d   1     -30.593  -8.825  30.853  0.00  0.00    -0.287 OA
ATOM      3  C   UNL d   1     -29.163  -9.512  30.158  0.00  0.00     0.081 A 
ATOM      4  C   UNL d   1     -28.661 -10.308  29.819  0.00  0.00     0.095 A 
ATOM      5  C   UNL d   1     -30.015 -11.321  30.191  0.00  0.00     0.090 A 
ATOM      6  C   UNL d   1     -30.091  -9.621  30.514  0.00  0.00     0.190 A 
ATOM      7  C   UNL d   1     -28.732  -8.564  30.146  0.00  0.00     0.085 A 
ATOM      8  C   UNL d   1     -30.517 -10.525  30.530  0.00  0.00     0.094 A 
ATOM      9  C   UNL d   1     -27.693 -10.210  29.445  0.00  0.00     0.075 A 
ATOM     10  C   UNL d   1     -27.243  -9.271  29.424  0.00  0.00     0.071 A 
ATOM     11  C   UNL d   1     -27.766  -8.443  29.777  0.00  0.00     0.074 A 
ENDROOT
BRANCH   5  12
ATOM     12  C   UNL d   1     -30.441 -12.226  30.208  0.00  0.00    -0.002 A 
ATOM     13  C   UNL d   1     -30.905 -12.575  29.394  0.00  0.00     0.014 A 
ATOM     14  C   UNL d   1     -31.332 -13.479  29.411  0.00  0.00     0.001 A 
ATOM     15  C   UNL d   1     -31.293 -14.035  30.242  0.00  0.00     0.000 A 
ATOM     16  C   UNL d   1     -30.829 -13.685  31.056  0.00  0.00     0.001 A 
ATOM     17  C   UNL d   1     -30.403 -12.781  31.039  0.00  0.00     0.014 A 
ENDBRANCH   5  12
BRANCH   7  18
ATOM     18  O   UNL d   1     -29.243  -7.775  30.488  0.00  0.00    -0.360 OA
ATOM     19  H   UNL d   1     -29.604  -7.450  30.103  0.00  0.00     0.217 HD
ENDBRANCH   7  18
BRANCH  10  20
ATOM     20  O   UNL d   1     -26.314  -9.166  29.068  0.00  0.00    -0.361 OA
ATOM     21  H   UNL d   1     -26.140  -9.478  28.561  0.00  0.00     0.217 HD
ENDBRANCH  10  20
TORSDOF 3
ENDMDL
