MODEL 1
REMARK VINA RESULT:    -7.701      0.000      0.000
REMARK INTER + INTRA:          -8.775
REMARK INTER:                  -9.780
REMARK INTRA:                   1.005
REMARK UNBOUND:                 0.952
REMARK  6 active torsions:
REMARK  status: ('A' for Active; 'I' for Inactive)
REMARK    1  A    between atoms: O_1  and  C_8 
REMARK    2  A    between atoms: O_2  and  C_9 
REMARK    3  A    between atoms: O_3  and  C_13 
REMARK    4  A    between atoms: C_5  and  C_11 
REMARK    5  A    between atoms: C_11  and  C_12 
REMARK    6  A    between atoms: C_12  and  C_13 
ROOT
ATOM      1  C   UNL d   1     -25.687  31.124  42.074  0.00  0.00    -0.033 A 
ATOM      2  C   UNL d   1     -24.910  30.724  42.560  0.00  0.00     0.050 A 
ATOM      3  C   UNL d   1     -26.138  30.611  41.344  0.00  0.00     0.014 A 
ATOM      4  C   UNL d   1     -24.583  29.812  42.315  0.00  0.00     0.099 A 
ATOM      5  C   UNL d   1     -25.033  29.298  41.585  0.00  0.00     0.098 A 
ATOM      6  C   UNL d   1     -25.811  29.698  41.099  0.00  0.00     0.040 A 
ENDROOT
BRANCH   1   7
ATOM      7  C   UNL d   1     -26.014  32.037  42.319  0.00  0.00     0.018 C 
BRANCH   7   8
ATOM      8  C   UNL d   1     -25.365  32.791  42.418  0.00  0.00     0.082 C 
BRANCH   8   9
ATOM      9  C   UNL d   1     -25.697  33.715  42.605  0.00  0.00     0.165 C 
ATOM     10  O   UNL d   1     -25.733  34.052  43.546  0.00  0.00    -0.647 OA
BRANCH   9  11
ATOM     11  O   UNL d   1     -25.992  34.303  41.852  0.00  0.00    -0.773 OA
ATOM     12  H   UNL d   1     -25.628  34.765  41.658  0.00  0.00     0.167 HD
ENDBRANCH   9  11
ENDBRANCH   8   9
ENDBRANCH   7   8
ENDBRANCH   1   7
BRANCH   4  13
ATOM     13  O   UNL d   1     -23.805  29.412  42.800  0.00  0.00    -0.358 OA
ATOM     14  H   UNL d   1     -23.714  29.542  43.400  0.00  0.00     0.217 HD
ENDBRANCH   4  13
BRANCH   5  15
ATOM     15  O   UNL d   1     -24.707  28.386  41.340  0.00  0.00    -0.358 OA
ATOM     16  H   UNL d   1     -24.595  28.245  40.746  0.00  0.00     0.217 HD
ENDBRANCH   5  15
TORSDOF 6
ENDMDL
MODEL 2
REMARK VINA RESULT:    -7.064     39.679     40.481
REMARK INTER + INTRA:          -7.970
REMARK INTER:                  -8.951
REMARK INTRA:                   0.981
REMARK UNBOUND:                 0.952
REMARK  6 active torsions:
REMARK  status: ('A' for Active; 'I' for Inactive)
REMARK    1  A    between atoms: O_1  and  C_8 
REMARK    2  A    between atoms: O_2  and  C_9 
REMARK    3  A    between atoms: O_3  and  C_13 
REMARK    4  A    between atoms: C_5  and  C_11 
REMARK    5  A    between atoms: C_11  and  C_12 
REMARK    6  A    between atoms: C_12  and  C_13 
ROOT
ATOM      1  C   UNL d   1      -5.273  15.083  11.361  0.00  0.00    -0.033 A 
ATOM      2  C   UNL d   1      -4.293  15.167  11.179  0.00  0.00     0.050 A 
ATOM      3  C   UNL d   1      -5.629  14.269  11.820  0.00  0.00     0.014 A 
ATOM      4  C   UNL d   1      -3.670  14.436  11.456  0.00  0.00     0.099 A 
ATOM      5  C   UNL d   1      -4.025  13.621  11.914  0.00  0.00     0.098 A 
ATOM      6  C   UNL d   1      -5.005  13.538  12.096  0.00  0.00     0.040 A 
ENDROOT
BRANCH   1   7
ATOM      7  C   UNL d   1      -5.897  15.814  11.085  0.00  0.00     0.018 C 
BRANCH   7   8
ATOM      8  C   UNL d   1      -6.081  15.974  10.115  0.00  0.00     0.082 C 
BRANCH   8   9
ATOM      9  C   UNL d   1      -6.791  16.623   9.842  0.00  0.00     0.165 C 
ATOM     10  O   UNL d   1      -7.462  16.367   9.146  0.00  0.00    -0.647 OA
BRANCH   9  11
ATOM     11  O   UNL d   1      -6.830  17.529  10.264  0.00  0.00    -0.773 OA
ATOM     12  H   UNL d   1      -7.343  17.711  10.561  0.00  0.00     0.167 HD
ENDBRANCH   9  11
ENDBRANCH   8   9
ENDBRANCH   7   8
ENDBRANCH   1   7
BRANCH   4  13
ATOM     13  O   UNL d   1      -2.690  14.519  11.274  0.00  0.00    -0.358 OA
ATOM     14  H   UNL d   1      -2.481  14.965  10.897  0.00  0.00     0.217 HD
ENDBRANCH   4  13
BRANCH   5  15
ATOM     15  O   UNL d   1      -3.402  12.890  12.190  0.00  0.00    -0.358 OA
ATOM     16  H   UNL d   1      -2.796  13.007  12.256  0.00  0.00     0.217 HD
ENDBRANCH   5  15
TORSDOF 6
ENDMDL
MODEL 3
REMARK VINA RESULT:    -6.863     38.493     40.176
REMARK INTER + INTRA:          -7.716
REMARK INTER:                  -8.778
REMARK INTRA:                   1.061
REMARK UNBOUND:                 0.952
REMARK  6 active torsions:
REMARK  status: ('A' for Active; 'I' for Inactive)
REMARK    1  A    between atoms: O_1  and  C_8 
REMARK    2  A    between atoms: O_2  and  C_9 
REMARK    3  A    between atoms: O_3  and  C_13 
REMARK    4  A    between atoms: C_5  and  C_11 
REMARK    5  A    between atoms: C_11  and  C_12 
REMARK    6  A    between atoms: C_12  and  C_13 
ROOT
ATOM      1  C   UNL d   1      -5.392  13.624  12.235  0.00  0.00    -0.033 A 
ATOM      2  C   UNL d   1      -4.602  13.011  12.223  0.00  0.00     0.050 A 
ATOM      3  C   UNL d   1      -5.309  14.554  11.879  0.00  0.00     0.014 A 
ATOM      4  C   UNL d   1      -3.729  13.329  11.855  0.00  0.00     0.099 A 
ATOM      5  C   UNL d   1      -3.645  14.259  11.498  0.00  0.00     0.098 A 
ATOM      6  C   UNL d   1      -4.435  14.872  11.510  0.00  0.00     0.040 A 
ENDROOT
BRANCH   1   7
ATOM      7  C   UNL d   1      -6.266  13.306  12.604  0.00  0.00     0.018 C 
BRANCH   7   8
ATOM      8  C   UNL d   1      -6.282  12.671  13.376  0.00  0.00     0.082 C 
BRANCH   8   9
ATOM      9  C   UNL d   1      -7.151  12.432  13.810  0.00  0.00     0.165 C 
ATOM     10  O   UNL d   1      -7.879  12.010  13.270  0.00  0.00    -0.647 OA
BRANCH   9  11
ATOM     11  O   UNL d   1      -7.291  12.616  14.783  0.00  0.00    -0.773 OA
ATOM     12  H   UNL d   1      -7.017  13.103  15.049  0.00  0.00     0.167 HD
ENDBRANCH   9  11
ENDBRANCH   8   9
ENDBRANCH   7   8
ENDBRANCH   1   7
BRANCH   4  13
ATOM     13  O   UNL d   1      -2.939  12.716  11.843  0.00  0.00    -0.358 OA
ATOM     14  H   UNL d   1      -2.875  12.301  11.386  0.00  0.00     0.217 HD
ENDBRANCH   4  13
BRANCH   5  15
ATOM     15  O   UNL d   1      -2.771  14.577  11.130  0.00  0.00    -0.358 OA
ATOM     16  H   UNL d   1      -2.663  14.548  10.520  0.00  0.00     0.217 HD
ENDBRANCH   5  15
TORSDOF 6
ENDMDL
MODEL 4
REMARK VINA RESULT:    -6.635     63.057     64.462
REMARK INTER + INTRA:          -7.428
REMARK INTER:                  -8.416
REMARK INTRA:                   0.988
REMARK UNBOUND:                 0.952
REMARK  6 active torsions:
REMARK  status: ('A' for Active; 'I' for Inactive)
REMARK    1  A    between atoms: O_1  and  C_8 
REMARK    2  A    between atoms: O_2  and  C_9 
REMARK    3  A    between atoms: O_3  and  C_13 
REMARK    4  A    between atoms: C_5  and  C_11 
REMARK    5  A    between atoms: C_11  and  C_12 
REMARK    6  A    between atoms: C_12  and  C_13 
ROOT
ATOM      1  C   UNL d   1       0.170   7.179 -12.172  0.00  0.00    -0.033 A 
ATOM      2  C   UNL d   1      -0.628   7.729 -11.928  0.00  0.00     0.050 A 
ATOM      3  C   UNL d   1       0.307   6.282 -11.751  0.00  0.00     0.014 A 
ATOM      4  C   UNL d   1      -1.290   7.383 -11.262  0.00  0.00     0.099 A 
ATOM      5  C   UNL d   1      -1.153   6.486 -10.841  0.00  0.00     0.098 A 
ATOM      6  C   UNL d   1      -0.355   5.936 -11.086  0.00  0.00     0.040 A 
ENDROOT
BRANCH   1   7
ATOM      7  C   UNL d   1       0.832   7.525 -12.837  0.00  0.00     0.018 C 
BRANCH   7   8
ATOM      8  C   UNL d   1       1.268   8.413 -12.692  0.00  0.00     0.082 C 
BRANCH   8   9
ATOM      9  C   UNL d   1       1.942   8.752 -13.349  0.00  0.00     0.165 C 
ATOM     10  O   UNL d   1       1.683   9.449 -14.017  0.00  0.00    -0.647 OA
BRANCH   9  11
ATOM     11  O   UNL d   1       2.876   8.393 -13.337  0.00  0.00    -0.773 OA
ATOM     12  H   UNL d   1       3.356   8.774 -13.432  0.00  0.00     0.167 HD
ENDBRANCH   9  11
ENDBRANCH   8   9
ENDBRANCH   7   8
ENDBRANCH   1   7
BRANCH   4  13
ATOM     13  O   UNL d   1      -2.088   7.934 -11.018  0.00  0.00    -0.358 OA
ATOM     14  H   UNL d   1      -2.180   8.484 -11.289  0.00  0.00     0.217 HD
ENDBRANCH   4  13
BRANCH   5  15
ATOM     15  O   UNL d   1      -1.814   6.140 -10.176  0.00  0.00    -0.358 OA
ATOM     16  H   UNL d   1      -2.404   6.046 -10.345  0.00  0.00     0.217 HD
ENDBRANCH   5  15
TORSDOF 6
ENDMDL
MODEL 5
REMARK VINA RESULT:    -6.633     62.815     64.328
REMARK INTER + INTRA:          -7.426
REMARK INTER:                  -8.468
REMARK INTRA:                   1.041
REMARK UNBOUND:                 0.952
REMARK  6 active torsions:
REMARK  status: ('A' for Active; 'I' for Inactive)
REMARK    1  A    between atoms: O_1  and  C_8 
REMARK    2  A    between atoms: O_2  and  C_9 
REMARK    3  A    between atoms: O_3  and  C_13 
REMARK    4  A    between atoms: C_5  and  C_11 
REMARK    5  A    between atoms: C_11  and  C_12 
REMARK    6  A    between atoms: C_12  and  C_13 
ROOT
ATOM      1  C   UNL d   1      -0.036   5.797 -11.194  0.00  0.00    -0.033 A 
ATOM      2  C   UNL d   1      -0.878   5.812 -10.654  0.00  0.00     0.050 A 
ATOM      3  C   UNL d   1       0.175   6.555 -11.811  0.00  0.00     0.014 A 
ATOM      4  C   UNL d   1      -1.508   6.584 -10.731  0.00  0.00     0.099 A 
ATOM      5  C   UNL d   1      -1.297   7.342 -11.347  0.00  0.00     0.098 A 
ATOM      6  C   UNL d   1      -0.456   7.328 -11.888  0.00  0.00     0.040 A 
ENDROOT
BRANCH   1   7
ATOM      7  C   UNL d   1       0.594   5.025 -11.118  0.00  0.00     0.018 C 
BRANCH   7   8
ATOM      8  C   UNL d   1       0.249   4.089 -11.192  0.00  0.00     0.082 C 
BRANCH   8   9
ATOM      9  C   UNL d   1       0.871   3.316 -11.065  0.00  0.00     0.165 C 
ATOM     10  O   UNL d   1       1.722   3.267 -11.588  0.00  0.00    -0.647 OA
BRANCH   9  11
ATOM     11  O   UNL d   1       0.641   2.591 -10.415  0.00  0.00    -0.773 OA
ATOM     12  H   UNL d   1       1.091   2.305 -10.098  0.00  0.00     0.167 HD
ENDBRANCH   9  11
ENDBRANCH   8   9
ENDBRANCH   7   8
ENDBRANCH   1   7
BRANCH   4  13
ATOM     13  O   UNL d   1      -2.349   6.599 -10.190  0.00  0.00    -0.358 OA
ATOM     14  H   UNL d   1      -2.320   6.611  -9.571  0.00  0.00     0.217 HD
ENDBRANCH   4  13
BRANCH   5  15
ATOM     15  O   UNL d   1      -1.927   8.115 -11.424  0.00  0.00    -0.358 OA
ATOM     16  H   UNL d   1      -1.721   8.693 -11.337  0.00  0.00     0.217 HD
ENDBRANCH   5  15
TORSDOF 6
ENDMDL
