MODEL 1
REMARK VINA RESULT:    -9.512      0.000      0.000
REMARK INTER + INTRA:          -9.543
REMARK INTER:                 -10.616
REMARK INTRA:                   1.073
REMARK UNBOUND:                 1.080
REMARK  3 active torsions:
REMARK  status: ('A' for Active; 'I' for Inactive)
REMARK    1  A    between atoms: O_2  and  C_10 
REMARK    2  A    between atoms: O_4  and  C_13 
REMARK    3  A    between atoms: C_7  and  C_9 
ROOT
ATOM      1  O   UNL d   1      -0.222   4.256 -11.545  0.00  0.00    -0.309 OA
ATOM      2  O   UNL d   1       2.649   4.231 -10.676  0.00  0.00    -0.287 OA
ATOM      3  C   UNL d   1       1.246   3.388 -11.241  0.00  0.00     0.081 A 
ATOM      4  C   UNL d   1       0.289   3.396 -11.531  0.00  0.00     0.095 A 
ATOM      5  C   UNL d   1       0.224   5.107 -11.269  0.00  0.00     0.090 A 
ATOM      6  C   UNL d   1       1.692   4.239 -10.965  0.00  0.00     0.190 A 
ATOM      7  C   UNL d   1       1.791   2.500 -11.222  0.00  0.00     0.085 A 
ATOM      8  C   UNL d   1       1.181   5.099 -10.979  0.00  0.00     0.094 A 
ATOM      9  C   UNL d   1      -0.190   2.517 -11.821  0.00  0.00     0.075 A 
ATOM     10  C   UNL d   1       0.336   1.618 -11.810  0.00  0.00     0.071 A 
ATOM     11  C   UNL d   1       1.333   1.610 -11.508  0.00  0.00     0.074 A 
ENDROOT
BRANCH   5  12
ATOM     12  C   UNL d   1      -0.287   5.966 -11.282  0.00  0.00    -0.002 A 
ATOM     13  C   UNL d   1      -1.063   6.097 -10.665  0.00  0.00     0.014 A 
ATOM     14  C   UNL d   1      -1.574   6.956 -10.679  0.00  0.00     0.001 A 
ATOM     15  C   UNL d   1      -1.309   7.685 -11.310  0.00  0.00     0.000 A 
ATOM     16  C   UNL d   1      -0.533   7.555 -11.927  0.00  0.00     0.001 A 
ATOM     17  C   UNL d   1      -0.022   6.696 -11.913  0.00  0.00     0.014 A 
ENDBRANCH   5  12
BRANCH   7  18
ATOM     18  O   UNL d   1       2.747   2.504 -10.931  0.00  0.00    -0.360 OA
ATOM     19  H   UNL d   1       3.191   2.682 -11.325  0.00  0.00     0.217 HD
ENDBRANCH   7  18
BRANCH  10  20
ATOM     20  O   UNL d   1      -0.114   0.769 -12.087  0.00  0.00    -0.361 OA
ATOM     21  H   UNL d   1      -0.678   0.787 -12.343  0.00  0.00     0.217 HD
ENDBRANCH  10  20
TORSDOF 3
ENDMDL
MODEL 2
REMARK VINA RESULT:    -9.355      1.055      2.278
REMARK INTER + INTRA:          -9.368
REMARK INTER:                 -10.532
REMARK INTRA:                   1.164
REMARK UNBOUND:                 1.080
REMARK  3 active torsions:
REMARK  status: ('A' for Active; 'I' for Inactive)
REMARK    1  A    between atoms: O_2  and  C_10 
REMARK    2  A    between atoms: O_4  and  C_13 
REMARK    3  A    between atoms: C_7  and  C_9 
ROOT
ATOM      1  O   UNL d   1       1.271   5.210 -11.089  0.00  0.00    -0.309 OA
ATOM      2  O   UNL d   1      -0.114   2.549 -11.075  0.00  0.00    -0.287 OA
ATOM      3  C   UNL d   1       1.345   3.480 -11.029  0.00  0.00     0.081 A 
ATOM      4  C   UNL d   1       1.807   4.368 -11.034  0.00  0.00     0.095 A 
ATOM      5  C   UNL d   1       0.273   5.165 -11.140  0.00  0.00     0.090 A 
ATOM      6  C   UNL d   1       0.348   3.436 -11.080  0.00  0.00     0.190 A 
ATOM      7  C   UNL d   1       1.891   2.595 -10.972  0.00  0.00     0.085 A 
ATOM      8  C   UNL d   1      -0.188   4.278 -11.135  0.00  0.00     0.094 A 
ATOM      9  C   UNL d   1       2.846   4.430 -10.982  0.00  0.00     0.075 A 
ATOM     10  C   UNL d   1       3.411   3.557 -10.924  0.00  0.00     0.071 A 
ATOM     11  C   UNL d   1       2.930   2.634 -10.919  0.00  0.00     0.074 A 
ENDROOT
BRANCH   5  12
ATOM     12  C   UNL d   1      -0.263   6.008 -11.195  0.00  0.00    -0.002 A 
ATOM     13  C   UNL d   1      -0.031   6.704 -11.875  0.00  0.00     0.014 A 
ATOM     14  C   UNL d   1      -0.568   7.546 -11.931  0.00  0.00     0.001 A 
ATOM     15  C   UNL d   1      -1.335   7.692 -11.306  0.00  0.00     0.000 A 
ATOM     16  C   UNL d   1      -1.566   6.996 -10.626  0.00  0.00     0.001 A 
ATOM     17  C   UNL d   1      -1.030   6.154 -10.571  0.00  0.00     0.014 A 
ENDBRANCH   5  12
BRANCH   7  18
ATOM     18  O   UNL d   1       1.418   1.714 -10.968  0.00  0.00    -0.360 OA
ATOM     19  H   UNL d   1       1.741   1.189 -11.034  0.00  0.00     0.217 HD
ENDBRANCH   7  18
BRANCH  10  20
ATOM     20  O   UNL d   1       4.409   3.606 -10.874  0.00  0.00    -0.361 OA
ATOM     21  H   UNL d   1       4.728   3.146 -10.609  0.00  0.00     0.217 HD
ENDBRANCH  10  20
TORSDOF 3
ENDMDL
MODEL 3
REMARK VINA RESULT:    -9.342     25.195     26.342
REMARK INTER + INTRA:          -9.354
REMARK INTER:                 -10.476
REMARK INTRA:                   1.123
REMARK UNBOUND:                 1.080
REMARK  3 active torsions:
REMARK  status: ('A' for Active; 'I' for Inactive)
REMARK    1  A    between atoms: O_2  and  C_10 
REMARK    2  A    between atoms: O_4  and  C_13 
REMARK    3  A    between atoms: C_7  and  C_9 
ROOT
ATOM      1  O   UNL d   1      -6.129  14.103  12.157  0.00  0.00    -0.309 OA
ATOM      2  O   UNL d   1      -5.200  11.372  12.980  0.00  0.00    -0.287 OA
ATOM      3  C   UNL d   1      -4.860  12.935  12.315  0.00  0.00     0.081 A 
ATOM      4  C   UNL d   1      -5.170  13.845  12.041  0.00  0.00     0.095 A 
ATOM      5  C   UNL d   1      -6.779  13.450  12.548  0.00  0.00     0.090 A 
ATOM      6  C   UNL d   1      -5.510  12.282  12.706  0.00  0.00     0.190 A 
ATOM      7  C   UNL d   1      -3.865  12.652  12.200  0.00  0.00     0.085 A 
ATOM      8  C   UNL d   1      -6.469  12.540  12.822  0.00  0.00     0.094 A 
ATOM      9  C   UNL d   1      -4.506  14.536  11.633  0.00  0.00     0.075 A 
ATOM     10  C   UNL d   1      -3.505  14.275  11.509  0.00  0.00     0.071 A 
ATOM     11  C   UNL d   1      -3.182  13.327  11.794  0.00  0.00     0.074 A 
ENDROOT
BRANCH   5  12
ATOM     12  C   UNL d   1      -7.738  13.708  12.664  0.00  0.00    -0.002 A 
ATOM     13  C   UNL d   1      -8.163  13.658  13.568  0.00  0.00     0.014 A 
ATOM     14  C   UNL d   1      -9.122  13.915  13.684  0.00  0.00     0.001 A 
ATOM     15  C   UNL d   1      -9.656  14.224  12.897  0.00  0.00     0.000 A 
ATOM     16  C   UNL d   1      -9.231  14.275  11.993  0.00  0.00     0.001 A 
ATOM     17  C   UNL d   1      -8.271  14.017  11.877  0.00  0.00     0.014 A 
ENDBRANCH   5  12
BRANCH   7  18
ATOM     18  O   UNL d   1      -3.566  11.739  12.477  0.00  0.00    -0.360 OA
ATOM     19  H   UNL d   1      -3.324  11.352  12.059  0.00  0.00     0.217 HD
ENDBRANCH   7  18
BRANCH  10  20
ATOM     20  O   UNL d   1      -2.859  14.930  11.118  0.00  0.00    -0.361 OA
ATOM     21  H   UNL d   1      -2.249  14.836  11.176  0.00  0.00     0.217 HD
ENDBRANCH  10  20
TORSDOF 3
ENDMDL
MODEL 4
REMARK VINA RESULT:    -9.287     24.539     25.603
REMARK INTER + INTRA:          -9.293
REMARK INTER:                 -10.319
REMARK INTRA:                   1.026
REMARK UNBOUND:                 1.080
REMARK  3 active torsions:
REMARK  status: ('A' for Active; 'I' for Inactive)
REMARK    1  A    between atoms: O_2  and  C_10 
REMARK    2  A    between atoms: O_4  and  C_13 
REMARK    3  A    between atoms: C_7  and  C_9 
ROOT
ATOM      1  O   UNL d   1      -5.692  16.062  10.172  0.00  0.00    -0.309 OA
ATOM      2  O   UNL d   1      -7.976  14.587  11.439  0.00  0.00    -0.287 OA
ATOM      3  C   UNL d   1      -6.273  14.850  11.264  0.00  0.00     0.081 A 
ATOM      4  C   UNL d   1      -5.512  15.342  10.842  0.00  0.00     0.095 A 
ATOM      5  C   UNL d   1      -6.633  16.290   9.924  0.00  0.00     0.090 A 
ATOM      6  C   UNL d   1      -7.215  15.078  11.016  0.00  0.00     0.190 A 
ATOM      7  C   UNL d   1      -6.101  14.098  11.964  0.00  0.00     0.085 A 
ATOM      8  C   UNL d   1      -7.395  15.798  10.346  0.00  0.00     0.094 A 
ATOM      9  C   UNL d   1      -4.526  15.115  11.090  0.00  0.00     0.075 A 
ATOM     10  C   UNL d   1      -4.330  14.366  11.787  0.00  0.00     0.071 A 
ATOM     11  C   UNL d   1      -5.123  13.855  12.227  0.00  0.00     0.074 A 
ENDROOT
BRANCH   5  12
ATOM     12  C   UNL d   1      -6.813  17.010   9.254  0.00  0.00    -0.002 A 
ATOM     13  C   UNL d   1      -6.660  16.837   8.281  0.00  0.00     0.014 A 
ATOM     14  C   UNL d   1      -6.839  17.557   7.610  0.00  0.00     0.001 A 
ATOM     15  C   UNL d   1      -7.173  18.450   7.913  0.00  0.00     0.000 A 
ATOM     16  C   UNL d   1      -7.327  18.623   8.886  0.00  0.00     0.001 A 
ATOM     17  C   UNL d   1      -7.147  17.903   9.556  0.00  0.00     0.014 A 
ENDBRANCH   5  12
BRANCH   7  18
ATOM     18  O   UNL d   1      -6.870  13.613  12.380  0.00  0.00    -0.360 OA
ATOM     19  H   UNL d   1      -6.787  13.290  12.902  0.00  0.00     0.217 HD
ENDBRANCH   7  18
BRANCH  10  20
ATOM     20  O   UNL d   1      -3.387  14.141  12.032  0.00  0.00    -0.361 OA
ATOM     21  H   UNL d   1      -3.189  13.555  11.995  0.00  0.00     0.217 HD
ENDBRANCH  10  20
TORSDOF 3
ENDMDL
MODEL 5
REMARK VINA RESULT:    -9.222     25.646     26.809
REMARK INTER + INTRA:          -9.220
REMARK INTER:                 -10.539
REMARK INTRA:                   1.318
REMARK UNBOUND:                 1.080
REMARK  3 active torsions:
REMARK  status: ('A' for Active; 'I' for Inactive)
REMARK    1  A    between atoms: O_2  and  C_10 
REMARK    2  A    between atoms: O_4  and  C_13 
REMARK    3  A    between atoms: C_7  and  C_9 
ROOT
ATOM      1  O   UNL d   1      -7.137  13.491  12.197  0.00  0.00    -0.309 OA
ATOM      2  O   UNL d   1      -6.744  11.462  14.372  0.00  0.00    -0.287 OA
ATOM      3  C   UNL d   1      -7.794  12.334  13.305  0.00  0.00     0.081 A 
ATOM      4  C   UNL d   1      -7.925  13.010  12.581  0.00  0.00     0.095 A 
ATOM      5  C   UNL d   1      -6.218  13.296  12.539  0.00  0.00     0.090 A 
ATOM      6  C   UNL d   1      -6.875  12.139  13.647  0.00  0.00     0.190 A 
ATOM      7  C   UNL d   1      -8.606  11.825  13.714  0.00  0.00     0.085 A 
ATOM      8  C   UNL d   1      -6.087  12.620  13.264  0.00  0.00     0.094 A 
ATOM      9  C   UNL d   1      -8.877  13.224  12.214  0.00  0.00     0.075 A 
ATOM     10  C   UNL d   1      -9.703  12.727  12.608  0.00  0.00     0.071 A 
ATOM     11  C   UNL d   1      -9.566  12.023  13.363  0.00  0.00     0.074 A 
ENDROOT
BRANCH   5  12
ATOM     12  C   UNL d   1      -5.429  13.778  12.156  0.00  0.00    -0.002 A 
ATOM     13  C   UNL d   1      -5.533  14.710  11.810  0.00  0.00     0.014 A 
ATOM     14  C   UNL d   1      -4.744  15.192  11.427  0.00  0.00     0.001 A 
ATOM     15  C   UNL d   1      -3.853  14.740  11.390  0.00  0.00     0.000 A 
ATOM     16  C   UNL d   1      -3.749  13.808  11.736  0.00  0.00     0.001 A 
ATOM     17  C   UNL d   1      -4.538  13.327  12.119  0.00  0.00     0.014 A 
ENDBRANCH   5  12
BRANCH   7  18
ATOM     18  O   UNL d   1      -8.463  11.150  14.438  0.00  0.00    -0.360 OA
ATOM     19  H   UNL d   1      -8.744  11.220  14.986  0.00  0.00     0.217 HD
ENDBRANCH   7  18
BRANCH  10  20
ATOM     20  O   UNL d   1     -10.621  12.925  12.264  0.00  0.00    -0.361 OA
ATOM     21  H   UNL d   1     -10.704  13.055  11.663  0.00  0.00     0.217 HD
ENDBRANCH  10  20
TORSDOF 3
ENDMDL
