MODEL 1
REMARK VINA RESULT:    -6.238      0.000      0.000
REMARK INTER + INTRA:          -6.238
REMARK INTER:                  -6.238
REMARK INTRA:                   0.000
REMARK UNBOUND:                 0.000
REMARK  0 active torsions:
REMARK  status: ('A' for Active; 'I' for Inactive)
ROOT
ATOM      1  O   UNL d   1      10.592  32.827  28.762  0.00  0.00    -0.265 OA
ATOM      2  O   UNL d   1      11.987  35.702  30.101  0.00  0.00    -0.246 OA
ATOM      3  N   UNL d   1      11.343  35.719  28.493  0.00  0.00    -0.286 N 
ATOM      4  N   UNL d   1      10.218  33.998  26.973  0.00  0.00    -0.338 N 
ATOM      5  N   UNL d   1      11.289  34.265  29.432  0.00  0.00    -0.269 N 
ATOM      6  N   UNL d   1      10.621  35.550  26.829  0.00  0.00    -0.223 NA
ATOM      7  C   UNL d   1      10.646  34.282  27.824  0.00  0.00     0.151 A 
ATOM      8  C   UNL d   1      10.896  35.246  27.734  0.00  0.00     0.167 A 
ATOM      9  C   UNL d   1      10.842  33.791  28.672  0.00  0.00     0.282 A 
ATOM     10  C   UNL d   1      11.540  35.228  29.342  0.00  0.00     0.332 A 
ATOM     11  C   UNL d   1      10.203  34.780  26.359  0.00  0.00     0.212 A 
ATOM     12  C   UNL d   1      11.594  36.683  28.404  0.00  0.00     0.163 C 
ATOM     13  C   UNL d   1       9.865  33.085  26.769  0.00  0.00     0.157 C 
ATOM     14  C   UNL d   1      11.486  33.774  30.280  0.00  0.00     0.164 C 
ENDROOT
TORSDOF 0
ENDMDL
MODEL 2
REMARK VINA RESULT:    -5.666      1.544      2.339
REMARK INTER + INTRA:          -5.666
REMARK INTER:                  -5.666
REMARK INTRA:                   0.000
REMARK UNBOUND:                 0.000
REMARK  0 active torsions:
REMARK  status: ('A' for Active; 'I' for Inactive)
ROOT
ATOM      1  O   UNL d   1      10.013  34.204  27.531  0.00  0.00    -0.265 OA
ATOM      2  O   UNL d   1      12.799  32.802  29.038  0.00  0.00    -0.246 OA
ATOM      3  N   UNL d   1      12.642  34.524  28.940  0.00  0.00    -0.286 N 
ATOM      4  N   UNL d   1      10.895  36.133  27.990  0.00  0.00    -0.338 N 
ATOM      5  N   UNL d   1      11.406  33.503  28.284  0.00  0.00    -0.269 N 
ATOM      6  N   UNL d   1      12.306  36.305  28.746  0.00  0.00    -0.223 NA
ATOM      7  C   UNL d   1      11.249  35.225  28.187  0.00  0.00     0.151 A 
ATOM      8  C   UNL d   1      12.125  35.332  28.657  0.00  0.00     0.167 A 
ATOM      9  C   UNL d   1      10.889  34.311  28.001  0.00  0.00     0.282 A 
ATOM     10  C   UNL d   1      12.282  33.610  28.754  0.00  0.00     0.332 A 
ATOM     11  C   UNL d   1      11.548  36.800  28.335  0.00  0.00     0.212 A 
ATOM     12  C   UNL d   1      13.518  34.631  29.410  0.00  0.00     0.163 C 
ATOM     13  C   UNL d   1      10.035  36.341  27.526  0.00  0.00     0.157 C 
ATOM     14  C   UNL d   1      11.047  32.589  28.098  0.00  0.00     0.164 C 
ENDROOT
TORSDOF 0
ENDMDL
MODEL 3
REMARK VINA RESULT:    -5.192     16.656     18.300
REMARK INTER + INTRA:          -5.192
REMARK INTER:                  -5.192
REMARK INTRA:                   0.000
REMARK UNBOUND:                 0.000
REMARK  0 active torsions:
REMARK  status: ('A' for Active; 'I' for Inactive)
ROOT
ATOM      1  O   UNL d   1      14.346  32.329  45.705  0.00  0.00    -0.265 OA
ATOM      2  O   UNL d   1      11.748  30.698  44.095  0.00  0.00    -0.246 OA
ATOM      3  N   UNL d   1      11.519  31.325  45.693  0.00  0.00    -0.286 N 
ATOM      4  N   UNL d   1      12.981  32.584  47.372  0.00  0.00    -0.338 N 
ATOM      5  N   UNL d   1      13.047  31.513  44.900  0.00  0.00    -0.269 N 
ATOM      6  N   UNL d   1      11.464  32.045  47.366  0.00  0.00    -0.223 NA
ATOM      7  C   UNL d   1      12.818  32.140  46.498  0.00  0.00     0.151 A 
ATOM      8  C   UNL d   1      11.876  31.805  46.494  0.00  0.00     0.167 A 
ATOM      9  C   UNL d   1      13.404  31.994  45.701  0.00  0.00     0.282 A 
ATOM     10  C   UNL d   1      12.105  31.179  44.896  0.00  0.00     0.332 A 
ATOM     11  C   UNL d   1      12.145  32.526  47.908  0.00  0.00     0.212 A 
ATOM     12  C   UNL d   1      10.577  30.990  45.690  0.00  0.00     0.163 C 
ATOM     13  C   UNL d   1      13.835  33.014  47.663  0.00  0.00     0.157 C 
ATOM     14  C   UNL d   1      13.633  31.368  44.102  0.00  0.00     0.164 C 
ENDROOT
TORSDOF 0
ENDMDL
MODEL 4
REMARK VINA RESULT:    -5.139     26.229     26.580
REMARK INTER + INTRA:          -5.139
REMARK INTER:                  -5.139
REMARK INTRA:                   0.000
REMARK UNBOUND:                 0.000
REMARK  0 active torsions:
REMARK  status: ('A' for Active; 'I' for Inactive)
ROOT
ATOM      1  O   UNL d   1     -15.688  40.656  31.042  0.00  0.00    -0.265 OA
ATOM      2  O   UNL d   1     -14.566  38.709  33.678  0.00  0.00    -0.246 OA
ATOM      3  N   UNL d   1     -13.931  40.304  33.448  0.00  0.00    -0.286 N 
ATOM      4  N   UNL d   1     -14.325  42.184  31.760  0.00  0.00    -0.338 N 
ATOM      5  N   UNL d   1     -15.127  39.682  32.360  0.00  0.00    -0.269 N 
ATOM      6  N   UNL d   1     -13.382  41.996  33.051  0.00  0.00    -0.223 NA
ATOM      7  C   UNL d   1     -14.492  41.277  32.130  0.00  0.00     0.151 A 
ATOM      8  C   UNL d   1     -13.907  41.160  32.932  0.00  0.00     0.167 A 
ATOM      9  C   UNL d   1     -15.103  40.539  31.844  0.00  0.00     0.282 A 
ATOM     10  C   UNL d   1     -14.541  39.565  33.162  0.00  0.00     0.332 A 
ATOM     11  C   UNL d   1     -13.639  42.628  32.328  0.00  0.00     0.212 A 
ATOM     12  C   UNL d   1     -13.346  40.186  34.250  0.00  0.00     0.163 C 
ATOM     13  C   UNL d   1     -14.767  42.582  30.957  0.00  0.00     0.157 C 
ATOM     14  C   UNL d   1     -15.737  38.943  32.074  0.00  0.00     0.164 C 
ENDROOT
TORSDOF 0
ENDMDL
MODEL 5
REMARK VINA RESULT:    -5.064      9.856     11.299
REMARK INTER + INTRA:          -5.064
REMARK INTER:                  -5.064
REMARK INTRA:                   0.000
REMARK UNBOUND:                 0.000
REMARK  0 active torsions:
REMARK  status: ('A' for Active; 'I' for Inactive)
ROOT
ATOM      1  O   UNL d   1       8.193  24.438  25.127  0.00  0.00    -0.265 OA
ATOM      2  O   UNL d   1       9.952  22.984  22.520  0.00  0.00    -0.246 OA
ATOM      3  N   UNL d   1       9.532  24.663  22.451  0.00  0.00    -0.286 N 
ATOM      4  N   UNL d   1       8.287  26.284  23.989  0.00  0.00    -0.338 N 
ATOM      5  N   UNL d   1       9.072  23.711  23.823  0.00  0.00    -0.269 N 
ATOM      6  N   UNL d   1       9.006  26.405  22.553  0.00  0.00    -0.223 NA
ATOM      7  C   UNL d   1       8.652  25.390  23.755  0.00  0.00     0.151 A 
ATOM      8  C   UNL d   1       9.099  25.465  22.863  0.00  0.00     0.167 A 
ATOM      9  C   UNL d   1       8.639  24.513  24.235  0.00  0.00     0.282 A 
ATOM     10  C   UNL d   1       9.518  23.786  22.932  0.00  0.00     0.332 A 
ATOM     11  C   UNL d   1       8.505  26.911  23.248  0.00  0.00     0.212 A 
ATOM     12  C   UNL d   1       9.978  24.738  21.560  0.00  0.00     0.163 C 
ATOM     13  C   UNL d   1       7.787  26.514  24.824  0.00  0.00     0.157 C 
ATOM     14  C   UNL d   1       9.059  22.834  24.304  0.00  0.00     0.164 C 
ENDROOT
TORSDOF 0
ENDMDL
