MODEL 1
REMARK VINA RESULT:    -9.619      0.000      0.000
REMARK INTER + INTRA:          -8.124
REMARK INTER:                 -11.587
REMARK INTRA:                   3.462
REMARK UNBOUND:                 3.462
REMARK  6 active torsions:
REMARK  status: ('A' for Active; 'I' for Inactive)
REMARK    1  A    between atoms: O_2  and  C_7 
REMARK    2  A    between atoms: O_3  and  C_13 
REMARK    3  A    between atoms: O_4  and  C_18 
REMARK    4  A    between atoms: O_5  and  C_19 
REMARK    5  A    between atoms: O_6  and  C_21 
REMARK    6  A    between atoms: C_8  and  C_12 
ROOT
ATOM      1  O   UNL d   1      24.623  -9.388  21.040  0.00  0.00    -0.338 OA
ATOM      2  C   UNL d   1      24.717  -7.662  21.157  0.00  0.00     0.156 A 
ATOM      3  C   UNL d   1      25.135  -8.563  21.278  0.00  0.00     0.191 A 
ATOM      4  C   UNL d   1      23.787  -7.587  20.798  0.00  0.00     0.079 A 
ATOM      5  C   UNL d   1      23.275  -8.412  20.560  0.00  0.00     0.011 A 
ATOM      6  C   UNL d   1      23.693  -9.312  20.681  0.00  0.00     0.081 A 
ATOM      7  C   UNL d   1      22.307  -8.318  20.187  0.00  0.00     0.077 A 
ATOM      8  C   UNL d   1      23.171 -10.181  20.438  0.00  0.00     0.074 A 
ATOM      9  C   UNL d   1      21.767  -9.173  19.937  0.00  0.00     0.073 A 
ATOM     10  C   UNL d   1      22.202 -10.110  20.063  0.00  0.00     0.071 A 
ENDROOT
BRANCH   3  11
ATOM     11  C   UNL d   1      26.065  -8.638  21.637  0.00  0.00    -0.024 A 
ATOM     12  C   UNL d   1      26.844  -8.651  21.010  0.00  0.00     0.049 A 
ATOM     13  C   UNL d   1      27.774  -8.726  21.369  0.00  0.00     0.099 A 
ATOM     14  C   UNL d   1      27.926  -8.789  22.355  0.00  0.00     0.098 A 
ATOM     15  C   UNL d   1      27.147  -8.776  22.983  0.00  0.00     0.040 A 
ATOM     16  C   UNL d   1      26.217  -8.701  22.624  0.00  0.00     0.013 A 
BRANCH  13  17
ATOM     17  O   UNL d   1      28.553  -8.739  20.742  0.00  0.00    -0.358 OA
ATOM     18  H   UNL d   1      28.919  -9.239  20.712  0.00  0.00     0.217 HD
ENDBRANCH  13  17
BRANCH  14  19
ATOM     19  O   UNL d   1      28.856  -8.864  22.714  0.00  0.00    -0.358 OA
ATOM     20  H   UNL d   1      29.022  -8.540  23.216  0.00  0.00     0.217 HD
ENDBRANCH  14  19
ENDBRANCH   3  11
BRANCH   2  21
ATOM     21  O   UNL d   1      25.230  -6.837  21.396  0.00  0.00    -0.392 OA
ATOM     22  H   UNL d   1      25.561  -6.818  21.920  0.00  0.00     0.210 HD
ENDBRANCH   2  21
BRANCH   7  23
ATOM     23  O   UNL d   1      21.899  -7.412  20.071  0.00  0.00    -0.360 OA
ATOM     24  H   UNL d   1      22.254  -6.932  19.905  0.00  0.00     0.217 HD
ENDBRANCH   7  23
BRANCH  10  25
ATOM     25  O   UNL d   1      21.692 -10.937  19.826  0.00  0.00    -0.361 OA
ATOM     26  H   UNL d   1      21.959 -11.493  19.884  0.00  0.00     0.217 HD
ENDBRANCH  10  25
TORSDOF 6
ENDMDL
MODEL 2
REMARK VINA RESULT:    -8.808      1.280      2.423
REMARK INTER + INTRA:          -7.148
REMARK INTER:                 -10.616
REMARK INTRA:                   3.468
REMARK UNBOUND:                 3.462
REMARK  6 active torsions:
REMARK  status: ('A' for Active; 'I' for Inactive)
REMARK    1  A    between atoms: O_2  and  C_7 
REMARK    2  A    between atoms: O_3  and  C_13 
REMARK    3  A    between atoms: O_4  and  C_18 
REMARK    4  A    between atoms: O_5  and  C_19 
REMARK    5  A    between atoms: O_6  and  C_21 
REMARK    6  A    between atoms: C_8  and  C_12 
ROOT
ATOM      1  O   UNL d   1      24.017  -7.149  21.193  0.00  0.00    -0.338 OA
ATOM      2  C   UNL d   1      23.730  -8.818  20.833  0.00  0.00     0.156 A 
ATOM      3  C   UNL d   1      24.320  -8.101  21.204  0.00  0.00     0.191 A 
ATOM      4  C   UNL d   1      22.837  -8.583  20.449  0.00  0.00     0.079 A 
ATOM      5  C   UNL d   1      22.534  -7.630  20.438  0.00  0.00     0.011 A 
ATOM      6  C   UNL d   1      23.124  -6.913  20.809  0.00  0.00     0.081 A 
ATOM      7  C   UNL d   1      21.602  -7.399  20.036  0.00  0.00     0.077 A 
ATOM      8  C   UNL d   1      22.822  -5.916  20.804  0.00  0.00     0.074 A 
ATOM      9  C   UNL d   1      21.279  -6.409  20.020  0.00  0.00     0.073 A 
ATOM     10  C   UNL d   1      21.893  -5.662  20.407  0.00  0.00     0.071 A 
ENDROOT
BRANCH   3  11
ATOM     11  C   UNL d   1      25.213  -8.337  21.588  0.00  0.00    -0.024 A 
ATOM     12  C   UNL d   1      26.029  -8.308  21.010  0.00  0.00     0.049 A 
ATOM     13  C   UNL d   1      26.922  -8.544  21.393  0.00  0.00     0.099 A 
ATOM     14  C   UNL d   1      26.999  -8.809  22.354  0.00  0.00     0.098 A 
ATOM     15  C   UNL d   1      26.184  -8.838  22.932  0.00  0.00     0.040 A 
ATOM     16  C   UNL d   1      25.291  -8.602  22.549  0.00  0.00     0.013 A 
BRANCH  13  17
ATOM     17  O   UNL d   1      27.737  -8.515  20.815  0.00  0.00    -0.358 OA
ATOM     18  H   UNL d   1      28.291  -8.659  21.053  0.00  0.00     0.217 HD
ENDBRANCH  13  17
BRANCH  14  19
ATOM     19  O   UNL d   1      27.892  -9.045  22.737  0.00  0.00    -0.358 OA
ATOM     20  H   UNL d   1      28.366  -8.648  22.685  0.00  0.00     0.217 HD
ENDBRANCH  14  19
ENDBRANCH   3  11
BRANCH   2  21
ATOM     21  O   UNL d   1      24.034  -9.771  20.844  0.00  0.00    -0.392 OA
ATOM     22  H   UNL d   1      23.833 -10.155  21.288  0.00  0.00     0.210 HD
ENDBRANCH   2  21
BRANCH   7  23
ATOM     23  O   UNL d   1      21.020  -8.124  19.667  0.00  0.00    -0.360 OA
ATOM     24  H   UNL d   1      20.604  -7.994  19.227  0.00  0.00     0.217 HD
ENDBRANCH   7  23
BRANCH  10  25
ATOM     25  O   UNL d   1      21.593  -4.709  20.397  0.00  0.00    -0.361 OA
ATOM     26  H   UNL d   1      21.815  -4.318  19.971  0.00  0.00     0.217 HD
ENDBRANCH  10  25
TORSDOF 6
ENDMDL
MODEL 3
REMARK VINA RESULT:    -8.710      1.789      3.223
REMARK INTER + INTRA:          -7.030
REMARK INTER:                 -10.491
REMARK INTRA:                   3.461
REMARK UNBOUND:                 3.462
REMARK  6 active torsions:
REMARK  status: ('A' for Active; 'I' for Inactive)
REMARK    1  A    between atoms: O_2  and  C_7 
REMARK    2  A    between atoms: O_3  and  C_13 
REMARK    3  A    between atoms: O_4  and  C_18 
REMARK    4  A    between atoms: O_5  and  C_19 
REMARK    5  A    between atoms: O_6  and  C_21 
REMARK    6  A    between atoms: C_8  and  C_12 
ROOT
ATOM      1  O   UNL d   1      22.088  -9.596  21.307  0.00  0.00    -0.338 OA
ATOM      2  C   UNL d   1      22.986 -10.104  19.916  0.00  0.00     0.156 A 
ATOM      3  C   UNL d   1      22.924  -9.570  20.759  0.00  0.00     0.191 A 
ATOM      4  C   UNL d   1      22.212 -10.664  19.621  0.00  0.00     0.079 A 
ATOM      5  C   UNL d   1      21.376 -10.690  20.169  0.00  0.00     0.011 A 
ATOM      6  C   UNL d   1      21.314 -10.156  21.012  0.00  0.00     0.081 A 
ATOM      7  C   UNL d   1      20.578 -11.278  19.849  0.00  0.00     0.077 A 
ATOM      8  C   UNL d   1      20.450 -10.173  21.594  0.00  0.00     0.074 A 
ATOM      9  C   UNL d   1      19.704 -11.310  20.415  0.00  0.00     0.073 A 
ATOM     10  C   UNL d   1      19.639 -10.754  21.293  0.00  0.00     0.071 A 
ENDROOT
BRANCH   3  11
ATOM     11  C   UNL d   1      23.698  -9.011  21.055  0.00  0.00    -0.024 A 
ATOM     12  C   UNL d   1      23.784  -8.067  20.734  0.00  0.00     0.049 A 
ATOM     13  C   UNL d   1      24.559  -7.507  21.029  0.00  0.00     0.099 A 
ATOM     14  C   UNL d   1      25.247  -7.891  21.645  0.00  0.00     0.098 A 
ATOM     15  C   UNL d   1      25.161  -8.834  21.966  0.00  0.00     0.040 A 
ATOM     16  C   UNL d   1      24.386  -9.394  21.671  0.00  0.00     0.013 A 
BRANCH  13  17
ATOM     17  O   UNL d   1      24.645  -6.564  20.708  0.00  0.00    -0.358 OA
ATOM     18  H   UNL d   1      24.302  -6.116  20.966  0.00  0.00     0.217 HD
ENDBRANCH  13  17
BRANCH  14  19
ATOM     19  O   UNL d   1      26.021  -7.331  21.940  0.00  0.00    -0.358 OA
ATOM     20  H   UNL d   1      26.058  -7.138  22.528  0.00  0.00     0.217 HD
ENDBRANCH  14  19
ENDBRANCH   3  11
BRANCH   2  21
ATOM     21  O   UNL d   1      23.822 -10.078  19.368  0.00  0.00    -0.392 OA
ATOM     22  H   UNL d   1      23.788 -10.004  18.753  0.00  0.00     0.210 HD
ENDBRANCH   2  21
BRANCH   7  23
ATOM     23  O   UNL d   1      20.651 -11.808  19.004  0.00  0.00    -0.360 OA
ATOM     24  H   UNL d   1      20.616 -12.426  19.022  0.00  0.00     0.217 HD
ENDBRANCH   7  23
BRANCH  10  25
ATOM     25  O   UNL d   1      18.805 -10.778  21.843  0.00  0.00    -0.361 OA
ATOM     26  H   UNL d   1      18.587 -11.318  22.053  0.00  0.00     0.217 HD
ENDBRANCH  10  25
TORSDOF 6
ENDMDL
MODEL 4
REMARK VINA RESULT:    -8.565     43.511     45.528
REMARK INTER + INTRA:          -6.855
REMARK INTER:                 -10.440
REMARK INTRA:                   3.585
REMARK UNBOUND:                 3.462
REMARK  6 active torsions:
REMARK  status: ('A' for Active; 'I' for Inactive)
REMARK    1  A    between atoms: O_2  and  C_7 
REMARK    2  A    between atoms: O_3  and  C_13 
REMARK    3  A    between atoms: O_4  and  C_18 
REMARK    4  A    between atoms: O_5  and  C_19 
REMARK    5  A    between atoms: O_6  and  C_21 
REMARK    6  A    between atoms: C_8  and  C_12 
ROOT
ATOM      1  O   UNL d   1      -1.666  26.492   9.933  0.00  0.00    -0.338 OA
ATOM      2  C   UNL d   1      -1.807  26.236  11.640  0.00  0.00     0.156 A 
ATOM      3  C   UNL d   1      -1.681  26.855  10.864  0.00  0.00     0.191 A 
ATOM      4  C   UNL d   1      -1.920  25.255  11.484  0.00  0.00     0.079 A 
ATOM      5  C   UNL d   1      -1.905  24.892  10.553  0.00  0.00     0.011 A 
ATOM      6  C   UNL d   1      -1.778  25.510   9.777  0.00  0.00     0.081 A 
ATOM      7  C   UNL d   1      -2.023  23.868  10.406  0.00  0.00     0.077 A 
ATOM      8  C   UNL d   1      -1.761  25.147   8.801  0.00  0.00     0.074 A 
ATOM      9  C   UNL d   1      -2.009  23.482   9.438  0.00  0.00     0.073 A 
ATOM     10  C   UNL d   1      -1.877  24.126   8.630  0.00  0.00     0.071 A 
ENDROOT
BRANCH   3  11
ATOM     11  C   UNL d   1      -1.568  27.836  11.020  0.00  0.00    -0.024 A 
ATOM     12  C   UNL d   1      -0.710  28.188  11.394  0.00  0.00     0.049 A 
ATOM     13  C   UNL d   1      -0.598  29.169  11.550  0.00  0.00     0.099 A 
ATOM     14  C   UNL d   1      -1.344  29.799  11.332  0.00  0.00     0.098 A 
ATOM     15  C   UNL d   1      -2.202  29.447  10.958  0.00  0.00     0.040 A 
ATOM     16  C   UNL d   1      -2.314  28.465  10.802  0.00  0.00     0.013 A 
BRANCH  13  17
ATOM     17  O   UNL d   1       0.260  29.521  11.924  0.00  0.00    -0.358 OA
ATOM     18  H   UNL d   1       0.600  29.169  12.304  0.00  0.00     0.217 HD
ENDBRANCH  13  17
BRANCH  14  19
ATOM     19  O   UNL d   1      -1.231  30.780  11.488  0.00  0.00    -0.358 OA
ATOM     20  H   UNL d   1      -0.859  31.112  11.119  0.00  0.00     0.217 HD
ENDBRANCH  14  19
ENDBRANCH   3  11
BRANCH   2  21
ATOM     21  O   UNL d   1      -1.822  26.600  12.572  0.00  0.00    -0.392 OA
ATOM     22  H   UNL d   1      -2.217  26.367  12.989  0.00  0.00     0.210 HD
ENDBRANCH   2  21
BRANCH   7  23
ATOM     23  O   UNL d   1      -2.150  23.259  11.189  0.00  0.00    -0.360 OA
ATOM     24  H   UNL d   1      -1.688  23.176  11.594  0.00  0.00     0.217 HD
ENDBRANCH   7  23
BRANCH  10  25
ATOM     25  O   UNL d   1      -1.862  23.766   7.698  0.00  0.00    -0.361 OA
ATOM     26  H   UNL d   1      -1.756  24.146   7.220  0.00  0.00     0.217 HD
ENDBRANCH  10  25
TORSDOF 6
ENDMDL
MODEL 5
REMARK VINA RESULT:    -8.395      1.390      5.210
REMARK INTER + INTRA:          -6.651
REMARK INTER:                 -10.142
REMARK INTRA:                   3.492
REMARK UNBOUND:                 3.462
REMARK  6 active torsions:
REMARK  status: ('A' for Active; 'I' for Inactive)
REMARK    1  A    between atoms: O_2  and  C_7 
REMARK    2  A    between atoms: O_3  and  C_13 
REMARK    3  A    between atoms: O_4  and  C_18 
REMARK    4  A    between atoms: O_5  and  C_19 
REMARK    5  A    between atoms: O_6  and  C_21 
REMARK    6  A    between atoms: C_8  and  C_12 
ROOT
ATOM      1  O   UNL d   1      23.340  -9.699  21.302  0.00  0.00    -0.338 OA
ATOM      2  C   UNL d   1      22.557  -8.468  20.370  0.00  0.00     0.156 A 
ATOM      3  C   UNL d   1      22.561  -9.390  20.756  0.00  0.00     0.191 A 
ATOM      4  C   UNL d   1      23.331  -7.855  20.529  0.00  0.00     0.079 A 
ATOM      5  C   UNL d   1      24.110  -8.164  21.075  0.00  0.00     0.011 A 
ATOM      6  C   UNL d   1      24.114  -9.087  21.461  0.00  0.00     0.081 A 
ATOM      7  C   UNL d   1      24.909  -7.515  21.232  0.00  0.00     0.077 A 
ATOM      8  C   UNL d   1      24.918  -9.423  22.032  0.00  0.00     0.074 A 
ATOM      9  C   UNL d   1      25.723  -7.831  21.799  0.00  0.00     0.073 A 
ATOM     10  C   UNL d   1      25.728  -8.791  22.202  0.00  0.00     0.071 A 
ENDROOT
BRANCH   3  11
ATOM     11  C   UNL d   1      21.787 -10.003  20.597  0.00  0.00    -0.024 A 
ATOM     12  C   UNL d   1      21.720 -10.510  19.738  0.00  0.00     0.049 A 
ATOM     13  C   UNL d   1      20.946 -11.123  19.579  0.00  0.00     0.099 A 
ATOM     14  C   UNL d   1      20.239 -11.228  20.279  0.00  0.00     0.098 A 
ATOM     15  C   UNL d   1      20.307 -10.720  21.138  0.00  0.00     0.040 A 
ATOM     16  C   UNL d   1      21.081 -10.107  21.297  0.00  0.00     0.013 A 
BRANCH  13  17
ATOM     17  O   UNL d   1      20.878 -11.631  18.720  0.00  0.00    -0.358 OA
ATOM     18  H   UNL d   1      21.242 -11.480  18.242  0.00  0.00     0.217 HD
ENDBRANCH  13  17
BRANCH  14  19
ATOM     19  O   UNL d   1      19.465 -11.841  20.120  0.00  0.00    -0.358 OA
ATOM     20  H   UNL d   1      18.903 -11.692  20.334  0.00  0.00     0.217 HD
ENDBRANCH  14  19
ENDBRANCH   3  11
BRANCH   2  21
ATOM     21  O   UNL d   1      21.778  -8.158  19.824  0.00  0.00    -0.392 OA
ATOM     22  H   UNL d   1      21.810  -8.169  19.205  0.00  0.00     0.210 HD
ENDBRANCH   2  21
BRANCH   7  23
ATOM     23  O   UNL d   1      24.893  -6.595  20.840  0.00  0.00    -0.360 OA
ATOM     24  H   UNL d   1      24.526  -6.471  20.357  0.00  0.00     0.217 HD
ENDBRANCH   7  23
BRANCH  10  25
ATOM     25  O   UNL d   1      26.505  -9.103  22.748  0.00  0.00    -0.361 OA
ATOM     26  H   UNL d   1      27.047  -8.806  22.715  0.00  0.00     0.217 HD
ENDBRANCH  10  25
TORSDOF 6
ENDMDL
