MODEL 1
REMARK VINA RESULT:    -3.649      0.000      0.000
REMARK INTER + INTRA:          -3.675
REMARK INTER:                  -4.637
REMARK INTRA:                   0.962
REMARK UNBOUND:                 0.934
REMARK  6 active torsions:
REMARK  status: ('A' for Active; 'I' for Inactive)
REMARK    1  A    between atoms: O_1  and  C_8 
REMARK    2  A    between atoms: O_2  and  C_9 
REMARK    3  A    between atoms: O_3  and  C_13 
REMARK    4  A    between atoms: C_5  and  C_11 
REMARK    5  A    between atoms: C_11  and  C_12 
REMARK    6  A    between atoms: C_12  and  C_13 
ROOT
ATOM      1  C   UNL d   1      48.280 -24.302  -4.745  0.00  0.00    -0.033 A 
ATOM      2  C   UNL d   1      48.988 -24.107  -5.423  0.00  0.00     0.050 A 
ATOM      3  C   UNL d   1      47.634 -25.050  -4.898  0.00  0.00     0.014 A 
ATOM      4  C   UNL d   1      49.051 -24.659  -6.254  0.00  0.00     0.099 A 
ATOM      5  C   UNL d   1      48.405 -25.407  -6.407  0.00  0.00     0.098 A 
ATOM      6  C   UNL d   1      47.696 -25.603  -5.729  0.00  0.00     0.040 A 
ENDROOT
BRANCH   1   7
ATOM      7  C   UNL d   1      48.217 -23.750  -3.914  0.00  0.00     0.018 C 
BRANCH   7   8
ATOM      8  C   UNL d   1      47.782 -22.850  -3.943  0.00  0.00     0.082 C 
BRANCH   8   9
ATOM      9  C   UNL d   1      47.813 -22.253  -3.141  0.00  0.00     0.165 C 
ATOM     10  O   UNL d   1      48.224 -21.344  -3.209  0.00  0.00    -0.647 OA
BRANCH   9  11
ATOM     11  O   UNL d   1      47.432 -22.566  -2.271  0.00  0.00    -0.773 OA
ATOM     12  H   UNL d   1      47.739 -22.982  -1.930  0.00  0.00     0.167 HD
ENDBRANCH   9  11
ENDBRANCH   8   9
ENDBRANCH   7   8
ENDBRANCH   1   7
BRANCH   4  13
ATOM     13  O   UNL d   1      49.759 -24.464  -6.932  0.00  0.00    -0.358 OA
ATOM     14  H   UNL d   1      50.337 -24.337  -6.749  0.00  0.00     0.217 HD
ENDBRANCH   4  13
BRANCH   5  15
ATOM     15  O   UNL d   1      48.467 -25.960  -7.238  0.00  0.00    -0.358 OA
ATOM     16  H   UNL d   1      48.806 -25.761  -7.718  0.00  0.00     0.217 HD
ENDBRANCH   5  15
TORSDOF 6
ENDMDL
MODEL 2
REMARK VINA RESULT:    -3.605      1.142      4.367
REMARK INTER + INTRA:          -3.619
REMARK INTER:                  -4.566
REMARK INTRA:                   0.947
REMARK UNBOUND:                 0.934
REMARK  6 active torsions:
REMARK  status: ('A' for Active; 'I' for Inactive)
REMARK    1  A    between atoms: O_1  and  C_8 
REMARK    2  A    between atoms: O_2  and  C_9 
REMARK    3  A    between atoms: O_3  and  C_13 
REMARK    4  A    between atoms: C_5  and  C_11 
REMARK    5  A    between atoms: C_11  and  C_12 
REMARK    6  A    between atoms: C_12  and  C_13 
ROOT
ATOM      1  C   UNL d   1      47.834 -22.815  -3.828  0.00  0.00    -0.033 A 
ATOM      2  C   UNL d   1      48.201 -21.887  -3.883  0.00  0.00     0.050 A 
ATOM      3  C   UNL d   1      47.369 -23.120  -2.996  0.00  0.00     0.014 A 
ATOM      4  C   UNL d   1      48.105 -21.264  -3.106  0.00  0.00     0.099 A 
ATOM      5  C   UNL d   1      47.640 -21.569  -2.275  0.00  0.00     0.098 A 
ATOM      6  C   UNL d   1      47.272 -22.498  -2.220  0.00  0.00     0.040 A 
ENDROOT
BRANCH   1   7
ATOM      7  C   UNL d   1      47.930 -23.438  -4.604  0.00  0.00     0.018 C 
BRANCH   7   8
ATOM      8  C   UNL d   1      48.762 -23.983  -4.707  0.00  0.00     0.082 C 
BRANCH   8   9
ATOM      9  C   UNL d   1      48.902 -24.531  -5.532  0.00  0.00     0.165 C 
ATOM     10  O   UNL d   1      48.305 -25.310  -5.722  0.00  0.00    -0.647 OA
BRANCH   9  11
ATOM     11  O   UNL d   1      49.639 -24.299  -6.167  0.00  0.00    -0.773 OA
ATOM     12  H   UNL d   1      49.515 -23.976  -6.681  0.00  0.00     0.167 HD
ENDBRANCH   9  11
ENDBRANCH   8   9
ENDBRANCH   7   8
ENDBRANCH   1   7
BRANCH   4  13
ATOM     13  O   UNL d   1      48.473 -20.336  -3.161  0.00  0.00    -0.358 OA
ATOM     14  H   UNL d   1      48.353 -19.928  -2.709  0.00  0.00     0.217 HD
ENDBRANCH   4  13
BRANCH   5  15
ATOM     15  O   UNL d   1      47.544 -20.947  -1.499  0.00  0.00    -0.358 OA
ATOM     16  H   UNL d   1      47.657 -21.148  -0.923  0.00  0.00     0.217 HD
ENDBRANCH   5  15
TORSDOF 6
ENDMDL
MODEL 3
REMARK VINA RESULT:    -3.043      1.852      2.461
REMARK INTER + INTRA:          -2.909
REMARK INTER:                  -3.893
REMARK INTRA:                   0.985
REMARK UNBOUND:                 0.934
REMARK  6 active torsions:
REMARK  status: ('A' for Active; 'I' for Inactive)
REMARK    1  A    between atoms: O_1  and  C_8 
REMARK    2  A    between atoms: O_2  and  C_9 
REMARK    3  A    between atoms: O_3  and  C_13 
REMARK    4  A    between atoms: C_5  and  C_11 
REMARK    5  A    between atoms: C_11  and  C_12 
REMARK    6  A    between atoms: C_12  and  C_13 
ROOT
ATOM      1  C   UNL d   1      48.657 -22.066  -5.266  0.00  0.00    -0.033 A 
ATOM      2  C   UNL d   1      49.216 -22.234  -6.078  0.00  0.00     0.050 A 
ATOM      3  C   UNL d   1      48.344 -22.833  -4.706  0.00  0.00     0.014 A 
ATOM      4  C   UNL d   1      49.461 -23.170  -6.329  0.00  0.00     0.099 A 
ATOM      5  C   UNL d   1      49.148 -23.938  -5.770  0.00  0.00     0.098 A 
ATOM      6  C   UNL d   1      48.589 -23.769  -4.958  0.00  0.00     0.040 A 
ENDROOT
BRANCH   1   7
ATOM      7  C   UNL d   1      48.411 -21.130  -5.014  0.00  0.00     0.018 C 
BRANCH   7   8
ATOM      8  C   UNL d   1      48.920 -20.655  -4.297  0.00  0.00     0.082 C 
BRANCH   8   9
ATOM      9  C   UNL d   1      48.816 -19.667  -4.180  0.00  0.00     0.165 C 
ATOM     10  O   UNL d   1      47.903 -19.263  -4.128  0.00  0.00    -0.647 OA
BRANCH   9  11
ATOM     11  O   UNL d   1      49.625 -19.083  -4.114  0.00  0.00    -0.773 OA
ATOM     12  H   UNL d   1      49.724 -18.642  -4.539  0.00  0.00     0.167 HD
ENDBRANCH   9  11
ENDBRANCH   8   9
ENDBRANCH   7   8
ENDBRANCH   1   7
BRANCH   4  13
ATOM     13  O   UNL d   1      50.020 -23.339  -7.141  0.00  0.00    -0.358 OA
ATOM     14  H   UNL d   1      49.938 -22.997  -7.651  0.00  0.00     0.217 HD
ENDBRANCH   4  13
BRANCH   5  15
ATOM     15  O   UNL d   1      49.394 -24.874  -6.022  0.00  0.00    -0.358 OA
ATOM     16  H   UNL d   1      49.805 -25.189  -5.680  0.00  0.00     0.217 HD
ENDBRANCH   5  15
TORSDOF 6
ENDMDL
MODEL 4
REMARK VINA RESULT:    -3.018      1.827      2.416
REMARK INTER + INTRA:          -2.878
REMARK INTER:                  -3.947
REMARK INTRA:                   1.069
REMARK UNBOUND:                 0.934
REMARK  6 active torsions:
REMARK  status: ('A' for Active; 'I' for Inactive)
REMARK    1  A    between atoms: O_1  and  C_8 
REMARK    2  A    between atoms: O_2  and  C_9 
REMARK    3  A    between atoms: O_3  and  C_13 
REMARK    4  A    between atoms: C_5  and  C_11 
REMARK    5  A    between atoms: C_11  and  C_12 
REMARK    6  A    between atoms: C_12  and  C_13 
ROOT
ATOM      1  C   UNL d   1      47.780 -22.399  -3.453  0.00  0.00    -0.033 A 
ATOM      2  C   UNL d   1      48.350 -22.350  -4.273  0.00  0.00     0.050 A 
ATOM      3  C   UNL d   1      47.446 -23.284  -3.129  0.00  0.00     0.014 A 
ATOM      4  C   UNL d   1      48.586 -23.186  -4.770  0.00  0.00     0.099 A 
ATOM      5  C   UNL d   1      48.252 -24.071  -4.446  0.00  0.00     0.098 A 
ATOM      6  C   UNL d   1      47.682 -24.120  -3.625  0.00  0.00     0.040 A 
ENDROOT
BRANCH   1   7
ATOM      7  C   UNL d   1      47.545 -21.564  -2.957  0.00  0.00     0.018 C 
BRANCH   7   8
ATOM      8  C   UNL d   1      48.204 -20.814  -2.899  0.00  0.00     0.082 C 
BRANCH   8   9
ATOM      9  C   UNL d   1      47.984 -19.995  -2.369  0.00  0.00     0.165 C 
ATOM     10  O   UNL d   1      47.195 -19.434  -2.621  0.00  0.00    -0.647 OA
BRANCH   9  11
ATOM     11  O   UNL d   1      48.553 -19.736  -1.589  0.00  0.00    -0.773 OA
ATOM     12  H   UNL d   1      48.445 -19.204  -1.289  0.00  0.00     0.167 HD
ENDBRANCH   9  11
ENDBRANCH   8   9
ENDBRANCH   7   8
ENDBRANCH   1   7
BRANCH   4  13
ATOM     13  O   UNL d   1      49.156 -23.136  -5.590  0.00  0.00    -0.358 OA
ATOM     14  H   UNL d   1      48.958 -22.822  -6.086  0.00  0.00     0.217 HD
ENDBRANCH   4  13
BRANCH   5  15
ATOM     15  O   UNL d   1      48.487 -24.906  -4.942  0.00  0.00    -0.358 OA
ATOM     16  H   UNL d   1      48.257 -25.006  -5.509  0.00  0.00     0.217 HD
ENDBRANCH   5  15
TORSDOF 6
ENDMDL
MODEL 5
REMARK VINA RESULT:    -2.875      1.704      4.353
REMARK INTER + INTRA:          -2.697
REMARK INTER:                  -3.678
REMARK INTRA:                   0.981
REMARK UNBOUND:                 0.934
REMARK  6 active torsions:
REMARK  status: ('A' for Active; 'I' for Inactive)
REMARK    1  A    between atoms: O_1  and  C_8 
REMARK    2  A    between atoms: O_2  and  C_9 
REMARK    3  A    between atoms: O_3  and  C_13 
REMARK    4  A    between atoms: C_5  and  C_11 
REMARK    5  A    between atoms: C_11  and  C_12 
REMARK    6  A    between atoms: C_12  and  C_13 
ROOT
ATOM      1  C   UNL d   1      47.915 -22.295  -4.041  0.00  0.00    -0.033 A 
ATOM      2  C   UNL d   1      47.894 -21.820  -3.161  0.00  0.00     0.050 A 
ATOM      3  C   UNL d   1      48.300 -21.842  -4.844  0.00  0.00     0.014 A 
ATOM      4  C   UNL d   1      48.259 -20.892  -3.085  0.00  0.00     0.099 A 
ATOM      5  C   UNL d   1      48.644 -20.439  -3.888  0.00  0.00     0.098 A 
ATOM      6  C   UNL d   1      48.665 -20.914  -4.768  0.00  0.00     0.040 A 
ENDROOT
BRANCH   1   7
ATOM      7  C   UNL d   1      47.551 -23.223  -4.117  0.00  0.00     0.018 C 
BRANCH   7   8
ATOM      8  C   UNL d   1      48.162 -23.984  -4.333  0.00  0.00     0.082 C 
BRANCH   8   9
ATOM      9  C   UNL d   1      47.797 -24.912  -4.409  0.00  0.00     0.165 C 
ATOM     10  O   UNL d   1      47.843 -25.533  -3.626  0.00  0.00    -0.647 OA
BRANCH   9  11
ATOM     11  O   UNL d   1      47.388 -25.220  -5.268  0.00  0.00    -0.773 OA
ATOM     12  H   UNL d   1      46.796 -25.087  -5.394  0.00  0.00     0.167 HD
ENDBRANCH   9  11
ENDBRANCH   8   9
ENDBRANCH   7   8
ENDBRANCH   1   7
BRANCH   4  13
ATOM     13  O   UNL d   1      48.238 -20.417  -2.205  0.00  0.00    -0.358 OA
ATOM     14  H   UNL d   1      47.780 -20.530  -1.802  0.00  0.00     0.217 HD
ENDBRANCH   4  13
BRANCH   5  15
ATOM     15  O   UNL d   1      49.009 -19.511  -3.812  0.00  0.00    -0.358 OA
ATOM     16  H   UNL d   1      49.622 -19.418  -3.808  0.00  0.00     0.217 HD
ENDBRANCH   5  15
TORSDOF 6
ENDMDL
