MODEL 1
REMARK VINA RESULT:    -5.443      0.000      0.000
REMARK INTER + INTRA:          -2.387
REMARK INTER:                  -5.906
REMARK INTRA:                   3.519
REMARK UNBOUND:                 3.534
REMARK  2 active torsions:
REMARK  status: ('A' for Active; 'I' for Inactive)
REMARK    1  A    between atoms: C_5  and  O_1 
REMARK    2  A    between atoms: C_4  and  C_9 
ROOT
ATOM      1  C   UNL d   1      47.804 -21.797  -2.923  0.00  0.00     0.028 A 
ATOM      2  C   UNL d   1      47.761 -22.663  -3.422  0.00  0.00     0.019 A 
ATOM      3  C   UNL d   1      48.166 -22.735  -4.334  0.00  0.00    -0.003 A 
ATOM      4  C   UNL d   1      48.251 -21.003  -3.336  0.00  0.00     0.058 A 
ATOM      5  C   UNL d   1      48.613 -21.941  -4.747  0.00  0.00     0.009 A 
ATOM      6  C   UNL d   1      48.655 -21.076  -4.248  0.00  0.00     0.038 A 
ATOM      7  C   UNL d   1      47.387 -21.706  -1.973  0.00  0.00     0.012 A 
ATOM      8  C   UNL d   1      47.299 -23.498  -3.005  0.00  0.00    -0.019 A 
ATOM      9  C   UNL d   1      46.920 -22.528  -1.536  0.00  0.00     0.034 A 
ATOM     10  C   UNL d   1      48.042 -20.462  -2.522  0.00  0.00     0.046 C 
ATOM     11  C   UNL d   1      46.875 -23.430  -2.056  0.00  0.00    -0.087 A 
ATOM     12  C   UNL d   1      46.429 -24.225  -1.646  0.00  0.00     0.043 C 
ENDROOT
BRANCH   3  13
ATOM     13  C   UNL d   1      48.123 -23.601  -4.832  0.00  0.00    -0.018 C 
ATOM     14  C   UNL d   1      47.346 -23.796  -5.430  0.00  0.00     0.010 C 
ATOM     15  C   UNL d   1      48.858 -24.271  -4.733  0.00  0.00     0.010 C 
ENDBRANCH   3  13
BRANCH   4  16
ATOM     16  O   UNL d   1      48.534 -20.045  -3.287  0.00  0.00    -0.390 OA
ATOM     17  H   UNL d   1      49.067 -19.893  -3.009  0.00  0.00     0.210 HD
ENDBRANCH   4  16
TORSDOF 2
ENDMDL
MODEL 2
REMARK VINA RESULT:    -5.355      1.013      2.693
REMARK INTER + INTRA:          -2.291
REMARK INTER:                  -5.809
REMARK INTRA:                   3.519
REMARK UNBOUND:                 3.534
REMARK  2 active torsions:
REMARK  status: ('A' for Active; 'I' for Inactive)
REMARK    1  A    between atoms: C_5  and  O_1 
REMARK    2  A    between atoms: C_4  and  C_9 
ROOT
ATOM      1  C   UNL d   1      47.828 -21.829  -2.958  0.00  0.00     0.028 A 
ATOM      2  C   UNL d   1      48.083 -22.311  -3.796  0.00  0.00     0.019 A 
ATOM      3  C   UNL d   1      47.846 -23.276  -3.910  0.00  0.00    -0.003 A 
ATOM      4  C   UNL d   1      47.337 -22.312  -2.233  0.00  0.00     0.058 A 
ATOM      5  C   UNL d   1      47.354 -23.759  -3.185  0.00  0.00     0.009 A 
ATOM      6  C   UNL d   1      47.099 -23.277  -2.347  0.00  0.00     0.038 A 
ATOM      7  C   UNL d   1      48.069 -20.824  -2.824  0.00  0.00     0.012 A 
ATOM      8  C   UNL d   1      48.595 -21.822  -4.560  0.00  0.00    -0.019 A 
ATOM      9  C   UNL d   1      48.581 -20.315  -3.575  0.00  0.00     0.034 A 
ATOM     10  C   UNL d   1      47.327 -21.477  -1.683  0.00  0.00     0.046 C 
ATOM     11  C   UNL d   1      48.846 -20.817  -4.448  0.00  0.00    -0.087 A 
ATOM     12  C   UNL d   1      49.338 -20.337  -5.175  0.00  0.00     0.043 C 
ENDROOT
BRANCH   3  13
ATOM     13  C   UNL d   1      48.100 -23.758  -4.748  0.00  0.00    -0.018 C 
ATOM     14  C   UNL d   1      48.979 -24.232  -4.806  0.00  0.00     0.010 C 
ATOM     15  C   UNL d   1      47.476 -23.766  -5.530  0.00  0.00     0.010 C 
ENDBRANCH   3  13
BRANCH   4  16
ATOM     16  O   UNL d   1      46.906 -22.313  -1.331  0.00  0.00    -0.390 OA
ATOM     17  H   UNL d   1      46.289 -22.273  -1.282  0.00  0.00     0.210 HD
ENDBRANCH   4  16
TORSDOF 2
ENDMDL
MODEL 3
REMARK VINA RESULT:    -5.292      2.116      3.619
REMARK INTER + INTRA:          -2.222
REMARK INTER:                  -5.756
REMARK INTRA:                   3.534
REMARK UNBOUND:                 3.534
REMARK  2 active torsions:
REMARK  status: ('A' for Active; 'I' for Inactive)
REMARK    1  A    between atoms: C_5  and  O_1 
REMARK    2  A    between atoms: C_4  and  C_9 
ROOT
ATOM      1  C   UNL d   1      48.883 -23.372  -5.519  0.00  0.00     0.028 A 
ATOM      2  C   UNL d   1      48.886 -22.376  -5.434  0.00  0.00     0.019 A 
ATOM      3  C   UNL d   1      49.278 -21.813  -6.161  0.00  0.00    -0.003 A 
ATOM      4  C   UNL d   1      49.273 -23.805  -6.332  0.00  0.00     0.058 A 
ATOM      5  C   UNL d   1      49.667 -22.246  -6.974  0.00  0.00     0.009 A 
ATOM      6  C   UNL d   1      49.664 -23.242  -7.060  0.00  0.00     0.038 A 
ATOM      7  C   UNL d   1      48.479 -23.972  -4.770  0.00  0.00     0.012 A 
ATOM      8  C   UNL d   1      48.484 -21.910  -4.593  0.00  0.00    -0.019 A 
ATOM      9  C   UNL d   1      48.072 -23.528  -3.920  0.00  0.00     0.034 A 
ATOM     10  C   UNL d   1      49.045 -24.706  -5.961  0.00  0.00     0.046 C 
ATOM     11  C   UNL d   1      48.074 -22.490  -3.831  0.00  0.00    -0.087 A 
ATOM     12  C   UNL d   1      47.686 -22.054  -3.020  0.00  0.00     0.043 C 
ENDROOT
BRANCH   3  13
ATOM     13  C   UNL d   1      49.280 -20.816  -6.076  0.00  0.00    -0.018 C 
ATOM     14  C   UNL d   1      48.501 -20.284  -6.407  0.00  0.00     0.010 C 
ATOM     15  C   UNL d   1      50.062 -20.352  -5.660  0.00  0.00     0.010 C 
ENDBRANCH   3  13
BRANCH   4  16
ATOM     16  O   UNL d   1      49.496 -24.631  -6.851  0.00  0.00    -0.390 OA
ATOM     17  H   UNL d   1      49.737 -25.123  -6.561  0.00  0.00     0.210 HD
ENDBRANCH   4  16
TORSDOF 2
ENDMDL
MODEL 4
REMARK VINA RESULT:    -5.283      0.589      0.989
REMARK INTER + INTRA:          -2.212
REMARK INTER:                  -5.757
REMARK INTRA:                   3.545
REMARK UNBOUND:                 3.534
REMARK  2 active torsions:
REMARK  status: ('A' for Active; 'I' for Inactive)
REMARK    1  A    between atoms: C_5  and  O_1 
REMARK    2  A    between atoms: C_4  and  C_9 
ROOT
ATOM      1  C   UNL d   1      47.465 -22.425  -2.534  0.00  0.00     0.028 A 
ATOM      2  C   UNL d   1      47.553 -23.171  -3.195  0.00  0.00     0.019 A 
ATOM      3  C   UNL d   1      48.021 -23.016  -4.064  0.00  0.00    -0.003 A 
ATOM      4  C   UNL d   1      47.845 -21.524  -2.743  0.00  0.00     0.058 A 
ATOM      5  C   UNL d   1      48.402 -22.115  -4.273  0.00  0.00     0.009 A 
ATOM      6  C   UNL d   1      48.314 -21.369  -3.613  0.00  0.00     0.038 A 
ATOM      7  C   UNL d   1      46.979 -22.571  -1.624  0.00  0.00     0.012 A 
ATOM      8  C   UNL d   1      47.161 -24.115  -2.991  0.00  0.00    -0.019 A 
ATOM      9  C   UNL d   1      46.580 -23.507  -1.399  0.00  0.00     0.034 A 
ATOM     10  C   UNL d   1      47.524 -21.183  -1.860  0.00  0.00     0.046 C 
ATOM     11  C   UNL d   1      46.672 -24.284  -2.087  0.00  0.00    -0.087 A 
ATOM     12  C   UNL d   1      46.292 -25.185  -1.882  0.00  0.00     0.043 C 
ENDROOT
BRANCH   3  13
ATOM     13  C   UNL d   1      48.109 -23.761  -4.725  0.00  0.00    -0.018 C 
ATOM     14  C   UNL d   1      48.946 -24.308  -4.753  0.00  0.00     0.010 C 
ATOM     15  C   UNL d   1      47.360 -23.960  -5.357  0.00  0.00     0.010 C 
ENDBRANCH   3  13
BRANCH   4  16
ATOM     16  O   UNL d   1      48.014 -20.574  -2.483  0.00  0.00    -0.390 OA
ATOM     17  H   UNL d   1      47.961 -20.123  -2.904  0.00  0.00     0.210 HD
ENDBRANCH   4  16
TORSDOF 2
ENDMDL
MODEL 5
REMARK VINA RESULT:    -5.108      1.417      2.793
REMARK INTER + INTRA:          -2.022
REMARK INTER:                  -5.541
REMARK INTRA:                   3.519
REMARK UNBOUND:                 3.534
REMARK  2 active torsions:
REMARK  status: ('A' for Active; 'I' for Inactive)
REMARK    1  A    between atoms: C_5  and  O_1 
REMARK    2  A    between atoms: C_4  and  C_9 
ROOT
ATOM      1  C   UNL d   1      48.244 -23.722  -4.301  0.00  0.00     0.028 A 
ATOM      2  C   UNL d   1      47.826 -22.991  -3.762  0.00  0.00     0.019 A 
ATOM      3  C   UNL d   1      48.002 -22.034  -3.995  0.00  0.00    -0.003 A 
ATOM      4  C   UNL d   1      48.837 -23.497  -5.074  0.00  0.00     0.058 A 
ATOM      5  C   UNL d   1      48.595 -21.809  -4.768  0.00  0.00     0.009 A 
ATOM      6  C   UNL d   1      49.013 -22.540  -5.307  0.00  0.00     0.038 A 
ATOM      7  C   UNL d   1      48.071 -24.723  -4.070  0.00  0.00     0.012 A 
ATOM      8  C   UNL d   1      47.206 -23.209  -2.954  0.00  0.00    -0.019 A 
ATOM      9  C   UNL d   1      47.454 -24.965  -3.266  0.00  0.00     0.034 A 
ATOM     10  C   UNL d   1      48.977 -24.471  -5.250  0.00  0.00     0.046 C 
ATOM     11  C   UNL d   1      47.018 -24.203  -2.704  0.00  0.00    -0.087 A 
ATOM     12  C   UNL d   1      46.424 -24.425  -1.931  0.00  0.00     0.043 C 
ENDROOT
BRANCH   3  13
ATOM     13  C   UNL d   1      47.584 -21.303  -3.456  0.00  0.00    -0.018 C 
ATOM     14  C   UNL d   1      46.691 -20.936  -3.718  0.00  0.00     0.010 C 
ATOM     15  C   UNL d   1      48.059 -20.939  -2.655  0.00  0.00     0.010 C 
ENDBRANCH   3  13
BRANCH   4  16
ATOM     16  O   UNL d   1      49.421 -23.789  -5.831  0.00  0.00    -0.390 OA
ATOM     17  H   UNL d   1      49.526 -24.393  -5.927  0.00  0.00     0.210 HD
ENDBRANCH   4  16
TORSDOF 2
ENDMDL
