MODEL 1
REMARK VINA RESULT:    -5.582      0.000      0.000
REMARK INTER + INTRA:          -5.219
REMARK INTER:                  -6.609
REMARK INTRA:                   1.390
REMARK UNBOUND:                 1.016
REMARK  3 active torsions:
REMARK  status: ('A' for Active; 'I' for Inactive)
REMARK    1  A    between atoms: O_2  and  C_10 
REMARK    2  A    between atoms: O_4  and  C_13 
REMARK    3  A    between atoms: C_7  and  C_9 
ROOT
ATOM      1  O   UNL d   1      48.587 -21.989  -4.865  0.00  0.00    -0.309 OA
ATOM      2  O   UNL d   1      48.918 -24.928  -5.370  0.00  0.00    -0.287 OA
ATOM      3  C   UNL d   1      49.091 -23.287  -5.895  0.00  0.00     0.081 A 
ATOM      4  C   UNL d   1      48.981 -22.307  -5.727  0.00  0.00     0.095 A 
ATOM      5  C   UNL d   1      48.302 -22.650  -4.171  0.00  0.00     0.090 A 
ATOM      6  C   UNL d   1      48.807 -23.948  -5.201  0.00  0.00     0.190 A 
ATOM      7  C   UNL d   1      49.501 -23.632  -6.788  0.00  0.00     0.085 A 
ATOM      8  C   UNL d   1      48.413 -23.630  -4.339  0.00  0.00     0.094 A 
ATOM      9  C   UNL d   1      49.272 -21.606  -6.441  0.00  0.00     0.075 A 
ATOM     10  C   UNL d   1      49.684 -21.929  -7.341  0.00  0.00     0.071 A 
ATOM     11  C   UNL d   1      49.799 -22.949  -7.516  0.00  0.00     0.074 A 
ENDROOT
BRANCH   5  12
ATOM     12  C   UNL d   1      47.908 -22.332  -3.309  0.00  0.00    -0.002 A 
ATOM     13  C   UNL d   1      48.048 -21.387  -3.014  0.00  0.00     0.014 A 
ATOM     14  C   UNL d   1      47.654 -21.069  -2.152  0.00  0.00     0.001 A 
ATOM     15  C   UNL d   1      47.119 -21.696  -1.585  0.00  0.00     0.000 A 
ATOM     16  C   UNL d   1      46.979 -22.641  -1.880  0.00  0.00     0.001 A 
ATOM     17  C   UNL d   1      47.374 -22.959  -2.742  0.00  0.00     0.014 A 
ENDBRANCH   5  12
BRANCH   7  18
ATOM     18  O   UNL d   1      49.606 -24.614  -6.946  0.00  0.00    -0.360 OA
ATOM     19  H   UNL d   1      49.453 -24.858  -7.494  0.00  0.00     0.217 HD
ENDBRANCH   7  18
BRANCH  10  20
ATOM     20  O   UNL d   1      49.967 -21.264  -8.033  0.00  0.00    -0.361 OA
ATOM     21  H   UNL d   1      50.495 -21.349  -8.345  0.00  0.00     0.217 HD
ENDBRANCH  10  20
TORSDOF 3
ENDMDL
MODEL 2
REMARK VINA RESULT:    -5.453      0.833      2.032
REMARK INTER + INTRA:          -5.075
REMARK INTER:                  -6.498
REMARK INTRA:                   1.423
REMARK UNBOUND:                 1.016
REMARK  3 active torsions:
REMARK  status: ('A' for Active; 'I' for Inactive)
REMARK    1  A    between atoms: O_2  and  C_10 
REMARK    2  A    between atoms: O_4  and  C_13 
REMARK    3  A    between atoms: C_7  and  C_9 
ROOT
ATOM      1  O   UNL d   1      48.353 -22.880  -4.258  0.00  0.00    -0.309 OA
ATOM      2  O   UNL d   1      49.226 -20.473  -5.821  0.00  0.00    -0.287 OA
ATOM      3  C   UNL d   1      49.048 -22.190  -5.687  0.00  0.00     0.081 A 
ATOM      4  C   UNL d   1      48.757 -22.993  -5.166  0.00  0.00     0.095 A 
ATOM      5  C   UNL d   1      48.241 -21.965  -3.871  0.00  0.00     0.090 A 
ATOM      6  C   UNL d   1      48.935 -21.275  -5.300  0.00  0.00     0.190 A 
ATOM      7  C   UNL d   1      49.470 -22.292  -6.634  0.00  0.00     0.085 A 
ATOM      8  C   UNL d   1      48.532 -21.163  -4.392  0.00  0.00     0.094 A 
ATOM      9  C   UNL d   1      48.868 -23.953  -5.556  0.00  0.00     0.075 A 
ATOM     10  C   UNL d   1      49.287 -24.078  -6.501  0.00  0.00     0.071 A 
ATOM     11  C   UNL d   1      49.590 -23.243  -7.043  0.00  0.00     0.074 A 
ENDROOT
BRANCH   5  12
ATOM     12  C   UNL d   1      47.837 -21.852  -2.964  0.00  0.00    -0.002 A 
ATOM     13  C   UNL d   1      47.883 -20.966  -2.502  0.00  0.00     0.014 A 
ATOM     14  C   UNL d   1      47.480 -20.854  -1.594  0.00  0.00     0.001 A 
ATOM     15  C   UNL d   1      47.029 -21.627  -1.148  0.00  0.00     0.000 A 
ATOM     16  C   UNL d   1      46.983 -22.513  -1.609  0.00  0.00     0.001 A 
ATOM     17  C   UNL d   1      47.387 -22.626  -2.517  0.00  0.00     0.014 A 
ENDBRANCH   5  12
BRANCH   7  18
ATOM     18  O   UNL d   1      49.757 -21.483  -7.146  0.00  0.00    -0.360 OA
ATOM     19  H   UNL d   1      49.351 -21.030  -7.262  0.00  0.00     0.217 HD
ENDBRANCH   7  18
BRANCH  10  20
ATOM     20  O   UNL d   1      49.398 -24.995  -6.885  0.00  0.00    -0.361 OA
ATOM     21  H   UNL d   1      48.899 -25.335  -7.023  0.00  0.00     0.217 HD
ENDBRANCH  10  20
TORSDOF 3
ENDMDL
MODEL 3
REMARK VINA RESULT:    -4.846      2.371      3.465
REMARK INTER + INTRA:          -4.397
REMARK INTER:                  -5.470
REMARK INTRA:                   1.073
REMARK UNBOUND:                 1.016
REMARK  3 active torsions:
REMARK  status: ('A' for Active; 'I' for Inactive)
REMARK    1  A    between atoms: O_2  and  C_10 
REMARK    2  A    between atoms: O_4  and  C_13 
REMARK    3  A    between atoms: C_7  and  C_9 
ROOT
ATOM      1  O   UNL d   1      47.427 -25.879  -4.995  0.00  0.00    -0.309 OA
ATOM      2  O   UNL d   1      49.428 -23.664  -5.295  0.00  0.00    -0.287 OA
ATOM      3  C   UNL d   1      48.463 -24.919  -5.997  0.00  0.00     0.081 A 
ATOM      4  C   UNL d   1      47.796 -25.658  -5.897  0.00  0.00     0.095 A 
ATOM      5  C   UNL d   1      47.725 -25.363  -4.192  0.00  0.00     0.090 A 
ATOM      6  C   UNL d   1      48.761 -24.402  -5.195  0.00  0.00     0.190 A 
ATOM      7  C   UNL d   1      48.855 -24.677  -6.931  0.00  0.00     0.085 A 
ATOM      8  C   UNL d   1      48.392 -24.624  -4.292  0.00  0.00     0.094 A 
ATOM      9  C   UNL d   1      47.475 -26.205  -6.724  0.00  0.00     0.075 A 
ATOM     10  C   UNL d   1      47.855 -25.979  -7.667  0.00  0.00     0.071 A 
ATOM     11  C   UNL d   1      48.549 -25.211  -7.772  0.00  0.00     0.074 A 
ENDROOT
BRANCH   5  12
ATOM     12  C   UNL d   1      47.357 -25.585  -3.289  0.00  0.00    -0.002 A 
ATOM     13  C   UNL d   1      47.554 -26.472  -2.873  0.00  0.00     0.014 A 
ATOM     14  C   UNL d   1      47.185 -26.694  -1.970  0.00  0.00     0.001 A 
ATOM     15  C   UNL d   1      46.619 -26.028  -1.484  0.00  0.00     0.000 A 
ATOM     16  C   UNL d   1      46.422 -25.141  -1.900  0.00  0.00     0.001 A 
ATOM     17  C   UNL d   1      46.791 -24.919  -2.803  0.00  0.00     0.014 A 
ENDBRANCH   5  12
BRANCH   7  18
ATOM     18  O   UNL d   1      49.521 -23.936  -7.019  0.00  0.00    -0.360 OA
ATOM     19  H   UNL d   1      49.331 -23.347  -7.015  0.00  0.00     0.217 HD
ENDBRANCH   7  18
BRANCH  10  20
ATOM     20  O   UNL d   1      47.554 -26.499  -8.468  0.00  0.00    -0.361 OA
ATOM     21  H   UNL d   1      46.992 -26.761  -8.473  0.00  0.00     0.217 HD
ENDBRANCH  10  20
TORSDOF 3
ENDMDL
MODEL 4
REMARK VINA RESULT:    -4.826      1.743      4.613
REMARK INTER + INTRA:          -4.374
REMARK INTER:                  -5.587
REMARK INTRA:                   1.213
REMARK UNBOUND:                 1.016
REMARK  3 active torsions:
REMARK  status: ('A' for Active; 'I' for Inactive)
REMARK    1  A    between atoms: O_2  and  C_10 
REMARK    2  A    between atoms: O_4  and  C_13 
REMARK    3  A    between atoms: C_7  and  C_9 
ROOT
ATOM      1  O   UNL d   1      48.316 -22.068  -4.031  0.00  0.00    -0.309 OA
ATOM      2  O   UNL d   1      46.828 -23.943  -2.223  0.00  0.00    -0.287 OA
ATOM      3  C   UNL d   1      47.482 -22.371  -2.544  0.00  0.00     0.081 A 
ATOM      4  C   UNL d   1      47.978 -21.746  -3.147  0.00  0.00     0.095 A 
ATOM      5  C   UNL d   1      48.158 -23.014  -4.313  0.00  0.00     0.090 A 
ATOM      6  C   UNL d   1      47.324 -23.318  -2.826  0.00  0.00     0.190 A 
ATOM      7  C   UNL d   1      47.124 -22.051  -1.620  0.00  0.00     0.085 A 
ATOM      8  C   UNL d   1      47.662 -23.639  -3.710  0.00  0.00     0.094 A 
ATOM      9  C   UNL d   1      48.150 -20.758  -2.867  0.00  0.00     0.075 A 
ATOM     10  C   UNL d   1      47.801 -20.416  -1.947  0.00  0.00     0.071 A 
ATOM     11  C   UNL d   1      47.285 -21.066  -1.320  0.00  0.00     0.074 A 
ENDROOT
BRANCH   5  12
ATOM     12  C   UNL d   1      48.496 -23.336  -5.198  0.00  0.00    -0.002 A 
ATOM     13  C   UNL d   1      48.941 -24.229  -5.269  0.00  0.00     0.014 A 
ATOM     14  C   UNL d   1      49.279 -24.550  -6.153  0.00  0.00     0.001 A 
ATOM     15  C   UNL d   1      49.172 -23.978  -6.967  0.00  0.00     0.000 A 
ATOM     16  C   UNL d   1      48.727 -23.086  -6.896  0.00  0.00     0.001 A 
ATOM     17  C   UNL d   1      48.389 -22.764  -6.011  0.00  0.00     0.014 A 
ENDBRANCH   5  12
BRANCH   7  18
ATOM     18  O   UNL d   1      46.630 -22.685  -1.025  0.00  0.00    -0.360 OA
ATOM     19  H   UNL d   1      46.448 -22.502  -0.462  0.00  0.00     0.217 HD
ENDBRANCH   7  18
BRANCH  10  20
ATOM     20  O   UNL d   1      47.961 -19.468  -1.670  0.00  0.00    -0.361 OA
ATOM     21  H   UNL d   1      47.912 -19.308  -1.073  0.00  0.00     0.217 HD
ENDBRANCH  10  20
TORSDOF 3
ENDMDL
MODEL 5
REMARK VINA RESULT:    -4.713      2.274      5.076
REMARK INTER + INTRA:          -4.248
REMARK INTER:                  -5.256
REMARK INTRA:                   1.009
REMARK UNBOUND:                 1.016
REMARK  3 active torsions:
REMARK  status: ('A' for Active; 'I' for Inactive)
REMARK    1  A    between atoms: O_2  and  C_10 
REMARK    2  A    between atoms: O_4  and  C_13 
REMARK    3  A    between atoms: C_7  and  C_9 
ROOT
ATOM      1  O   UNL d   1      47.466 -23.065  -3.102  0.00  0.00    -0.309 OA
ATOM      2  O   UNL d   1      48.534 -20.274  -3.376  0.00  0.00    -0.287 OA
ATOM      3  C   UNL d   1      47.697 -21.476  -2.451  0.00  0.00     0.081 A 
ATOM      4  C   UNL d   1      47.341 -22.406  -2.360  0.00  0.00     0.095 A 
ATOM      5  C   UNL d   1      47.947 -22.793  -3.936  0.00  0.00     0.090 A 
ATOM      6  C   UNL d   1      48.178 -21.204  -3.284  0.00  0.00     0.190 A 
ATOM      7  C   UNL d   1      47.575 -20.780  -1.686  0.00  0.00     0.085 A 
ATOM      8  C   UNL d   1      48.303 -21.863  -4.027  0.00  0.00     0.094 A 
ATOM      9  C   UNL d   1      46.839 -22.705  -1.497  0.00  0.00     0.075 A 
ATOM     10  C   UNL d   1      46.705 -22.025  -0.720  0.00  0.00     0.071 A 
ATOM     11  C   UNL d   1      47.075 -21.056  -0.815  0.00  0.00     0.074 A 
ENDROOT
BRANCH   5  12
ATOM     12  C   UNL d   1      48.072 -23.451  -4.678  0.00  0.00    -0.002 A 
ATOM     13  C   UNL d   1      47.329 -23.621  -5.325  0.00  0.00     0.014 A 
ATOM     14  C   UNL d   1      47.453 -24.279  -6.068  0.00  0.00     0.001 A 
ATOM     15  C   UNL d   1      48.321 -24.767  -6.163  0.00  0.00     0.000 A 
ATOM     16  C   UNL d   1      49.064 -24.597  -5.516  0.00  0.00     0.001 A 
ATOM     17  C   UNL d   1      48.939 -23.938  -4.773  0.00  0.00     0.014 A 
ENDBRANCH   5  12
BRANCH   7  18
ATOM     18  O   UNL d   1      47.935 -19.853  -1.788  0.00  0.00    -0.360 OA
ATOM     19  H   UNL d   1      47.626 -19.373  -1.548  0.00  0.00     0.217 HD
ENDBRANCH   7  18
BRANCH  10  20
ATOM     20  O   UNL d   1      46.223 -22.301   0.112  0.00  0.00    -0.361 OA
ATOM     21  H   UNL d   1      46.266 -21.954   0.624  0.00  0.00     0.217 HD
ENDBRANCH  10  20
TORSDOF 3
ENDMDL
