MODEL 1
REMARK VINA RESULT:    -3.746      0.000      0.000
REMARK INTER + INTRA:          -2.795
REMARK INTER:                  -4.702
REMARK INTRA:                   1.906
REMARK UNBOUND:                 1.717
REMARK  4 active torsions:
REMARK  status: ('A' for Active; 'I' for Inactive)
REMARK    1  A    between atoms: O_1  and  C_8 
REMARK    2  A    between atoms: O_2  and  C_7 
REMARK    3  A    between atoms: C_3  and  C_4 
REMARK    4  A    between atoms: C_4  and  C_10 
ROOT
ATOM      1  C   UNL d   1      48.505 -23.237  -4.784  0.00  0.00    -0.052 A 
ATOM      2  C   UNL d   1      48.771 -24.092  -5.231  0.00  0.00     0.046 A 
ATOM      3  C   UNL d   1      48.697 -22.361  -5.227  0.00  0.00     0.010 A 
ATOM      4  C   UNL d   1      49.229 -24.070  -6.119  0.00  0.00     0.099 A 
ATOM      5  C   UNL d   1      49.421 -23.194  -6.562  0.00  0.00     0.101 A 
ATOM      6  C   UNL d   1      49.155 -22.339  -6.115  0.00  0.00     0.040 A 
ENDROOT
BRANCH   1   7
ATOM      7  C   UNL d   1      48.047 -23.259  -3.896  0.00  0.00     0.065 C 
BRANCH   7   8
ATOM      8  C   UNL d   1      47.815 -22.404  -3.432  0.00  0.00    -0.032 C 
ATOM      9  C   UNL d   1      47.381 -22.426  -2.531  0.00  0.00     0.007 C 
ENDBRANCH   7   8
ENDBRANCH   1   7
BRANCH   4  10
ATOM     10  O   UNL d   1      49.496 -24.924  -6.566  0.00  0.00    -0.358 OA
ATOM     11  H   UNL d   1      49.084 -25.383  -6.628  0.00  0.00     0.217 HD
ENDBRANCH   4  10
BRANCH   5  12
ATOM     12  O   UNL d   1      49.879 -23.172  -7.450  0.00  0.00    -0.353 OA
ATOM     13  C   UNL d   1      50.062 -22.296  -7.897  0.00  0.00     0.210 C 
ENDBRANCH   5  12
TORSDOF 4
ENDMDL
MODEL 2
REMARK VINA RESULT:    -3.671      1.383      2.265
REMARK INTER + INTRA:          -2.705
REMARK INTER:                  -4.404
REMARK INTRA:                   1.700
REMARK UNBOUND:                 1.717
REMARK  4 active torsions:
REMARK  status: ('A' for Active; 'I' for Inactive)
REMARK    1  A    between atoms: O_1  and  C_8 
REMARK    2  A    between atoms: O_2  and  C_7 
REMARK    3  A    between atoms: C_3  and  C_4 
REMARK    4  A    between atoms: C_4  and  C_10 
ROOT
ATOM      1  C   UNL d   1      48.240 -24.124  -4.696  0.00  0.00    -0.052 A 
ATOM      2  C   UNL d   1      48.991 -24.038  -5.351  0.00  0.00     0.046 A 
ATOM      3  C   UNL d   1      47.512 -24.792  -4.854  0.00  0.00     0.010 A 
ATOM      4  C   UNL d   1      49.013 -24.620  -6.165  0.00  0.00     0.099 A 
ATOM      5  C   UNL d   1      48.286 -25.288  -6.322  0.00  0.00     0.101 A 
ATOM      6  C   UNL d   1      47.535 -25.373  -5.667  0.00  0.00     0.040 A 
ENDROOT
BRANCH   1   7
ATOM      7  C   UNL d   1      48.217 -23.543  -3.883  0.00  0.00     0.065 C 
BRANCH   7   8
ATOM      8  C   UNL d   1      47.746 -22.661  -3.912  0.00  0.00    -0.032 C 
ATOM      9  C   UNL d   1      47.807 -22.036  -3.134  0.00  0.00     0.007 C 
ENDBRANCH   7   8
ENDBRANCH   1   7
BRANCH   4  10
ATOM     10  O   UNL d   1      49.764 -24.534  -6.820  0.00  0.00    -0.358 OA
ATOM     11  H   UNL d   1      50.294 -24.261  -6.650  0.00  0.00     0.217 HD
ENDBRANCH   4  10
BRANCH   5  12
ATOM     12  O   UNL d   1      48.308 -25.869  -7.135  0.00  0.00    -0.353 OA
ATOM     13  C   UNL d   1      47.512 -26.425  -7.375  0.00  0.00     0.210 C 
ENDBRANCH   5  12
TORSDOF 4
ENDMDL
MODEL 3
REMARK VINA RESULT:    -3.433      2.723      4.536
REMARK INTER + INTRA:          -2.419
REMARK INTER:                  -4.200
REMARK INTRA:                   1.781
REMARK UNBOUND:                 1.717
REMARK  4 active torsions:
REMARK  status: ('A' for Active; 'I' for Inactive)
REMARK    1  A    between atoms: O_1  and  C_8 
REMARK    2  A    between atoms: O_2  and  C_7 
REMARK    3  A    between atoms: C_3  and  C_4 
REMARK    4  A    between atoms: C_4  and  C_10 
ROOT
ATOM      1  C   UNL d   1      47.791 -22.617  -3.467  0.00  0.00    -0.052 A 
ATOM      2  C   UNL d   1      48.197 -21.748  -3.748  0.00  0.00     0.046 A 
ATOM      3  C   UNL d   1      47.361 -22.700  -2.568  0.00  0.00     0.010 A 
ATOM      4  C   UNL d   1      48.173 -20.961  -3.131  0.00  0.00     0.099 A 
ATOM      5  C   UNL d   1      47.743 -21.044  -2.232  0.00  0.00     0.101 A 
ATOM      6  C   UNL d   1      47.337 -21.914  -1.951  0.00  0.00     0.040 A 
ENDROOT
BRANCH   1   7
ATOM      7  C   UNL d   1      47.815 -23.404  -4.084  0.00  0.00     0.065 C 
BRANCH   7   8
ATOM      8  C   UNL d   1      48.650 -23.615  -4.592  0.00  0.00    -0.032 C 
ATOM      9  C   UNL d   1      48.743 -24.495  -5.058  0.00  0.00     0.007 C 
ENDBRANCH   7   8
ENDBRANCH   1   7
BRANCH   4  10
ATOM     10  O   UNL d   1      48.579 -20.092  -3.413  0.00  0.00    -0.358 OA
ATOM     11  H   UNL d   1      49.063 -20.087  -3.801  0.00  0.00     0.217 HD
ENDBRANCH   4  10
BRANCH   5  12
ATOM     12  O   UNL d   1      47.718 -20.258  -1.615  0.00  0.00    -0.353 OA
ATOM     13  C   UNL d   1      47.339 -20.356  -0.695  0.00  0.00     0.210 C 
ENDBRANCH   5  12
TORSDOF 4
ENDMDL
MODEL 4
REMARK VINA RESULT:    -3.367      2.092      2.631
REMARK INTER + INTRA:          -2.339
REMARK INTER:                  -4.178
REMARK INTRA:                   1.840
REMARK UNBOUND:                 1.717
REMARK  4 active torsions:
REMARK  status: ('A' for Active; 'I' for Inactive)
REMARK    1  A    between atoms: O_1  and  C_8 
REMARK    2  A    between atoms: O_2  and  C_7 
REMARK    3  A    between atoms: C_3  and  C_4 
REMARK    4  A    between atoms: C_4  and  C_10 
ROOT
ATOM      1  C   UNL d   1      48.763 -24.380  -6.385  0.00  0.00    -0.052 A 
ATOM      2  C   UNL d   1      48.444 -25.327  -6.374  0.00  0.00     0.046 A 
ATOM      3  C   UNL d   1      48.800 -23.874  -7.247  0.00  0.00     0.010 A 
ATOM      4  C   UNL d   1      48.162 -25.770  -7.225  0.00  0.00     0.099 A 
ATOM      5  C   UNL d   1      48.198 -25.265  -8.087  0.00  0.00     0.101 A 
ATOM      6  C   UNL d   1      48.517 -24.317  -8.098  0.00  0.00     0.040 A 
ENDROOT
BRANCH   1   7
ATOM      7  C   UNL d   1      49.046 -23.937  -5.534  0.00  0.00     0.065 C 
BRANCH   7   8
ATOM      8  C   UNL d   1      48.407 -23.873  -4.768  0.00  0.00    -0.032 C 
ATOM      9  C   UNL d   1      48.395 -23.054  -4.194  0.00  0.00     0.007 C 
ENDBRANCH   7   8
ENDBRANCH   1   7
BRANCH   4  10
ATOM     10  O   UNL d   1      47.843 -26.718  -7.214  0.00  0.00    -0.358 OA
ATOM     11  H   UNL d   1      47.350 -26.883  -7.551  0.00  0.00     0.217 HD
ENDBRANCH   4  10
BRANCH   5  12
ATOM     12  O   UNL d   1      47.916 -25.707  -8.938  0.00  0.00    -0.353 OA
ATOM     13  C   UNL d   1      47.862 -25.176  -9.784  0.00  0.00     0.210 C 
ENDBRANCH   5  12
TORSDOF 4
ENDMDL
MODEL 5
REMARK VINA RESULT:    -3.364      1.701      3.546
REMARK INTER + INTRA:          -2.335
REMARK INTER:                  -4.036
REMARK INTRA:                   1.701
REMARK UNBOUND:                 1.717
REMARK  4 active torsions:
REMARK  status: ('A' for Active; 'I' for Inactive)
REMARK    1  A    between atoms: O_1  and  C_8 
REMARK    2  A    between atoms: O_2  and  C_7 
REMARK    3  A    between atoms: C_3  and  C_4 
REMARK    4  A    between atoms: C_4  and  C_10 
ROOT
ATOM      1  C   UNL d   1      49.506 -23.378  -6.940  0.00  0.00    -0.052 A 
ATOM      2  C   UNL d   1      49.266 -24.295  -7.257  0.00  0.00     0.046 A 
ATOM      3  C   UNL d   1      49.303 -23.105  -5.999  0.00  0.00     0.010 A 
ATOM      4  C   UNL d   1      48.825 -24.941  -6.634  0.00  0.00     0.099 A 
ATOM      5  C   UNL d   1      48.622 -24.668  -5.693  0.00  0.00     0.101 A 
ATOM      6  C   UNL d   1      48.862 -23.751  -5.376  0.00  0.00     0.040 A 
ENDROOT
BRANCH   1   7
ATOM      7  C   UNL d   1      49.947 -22.732  -7.563  0.00  0.00     0.065 C 
BRANCH   7   8
ATOM      8  C   UNL d   1      49.425 -22.323  -8.311  0.00  0.00    -0.032 C 
ATOM      9  C   UNL d   1      49.844 -21.621  -8.888  0.00  0.00     0.007 C 
ENDBRANCH   7   8
ENDBRANCH   1   7
BRANCH   4  10
ATOM     10  O   UNL d   1      48.585 -25.858  -6.951  0.00  0.00    -0.358 OA
ATOM     11  H   UNL d   1      48.928 -26.345  -6.778  0.00  0.00     0.217 HD
ENDBRANCH   4  10
BRANCH   5  12
ATOM     12  O   UNL d   1      48.181 -25.314  -5.070  0.00  0.00    -0.353 OA
ATOM     13  C   UNL d   1      47.912 -25.019  -4.153  0.00  0.00     0.210 C 
ENDBRANCH   5  12
TORSDOF 4
ENDMDL
