MODEL 1
REMARK VINA RESULT:    -3.900      0.000      0.000
REMARK INTER + INTRA:          -3.458
REMARK INTER:                  -4.396
REMARK INTRA:                   0.938
REMARK UNBOUND:                 0.784
REMARK  2 active torsions:
REMARK  status: ('A' for Active; 'I' for Inactive)
REMARK    1  A    between atoms: O_1  and  C_9 
REMARK    2  A    between atoms: C_2  and  C_3 
ROOT
ATOM      1  C   UNL d   1      48.305 -22.781  -4.330  0.00  0.00    -0.052 A 
ATOM      2  C   UNL d   1      48.619 -23.672  -4.659  0.00  0.00     0.044 A 
ATOM      3  C   UNL d   1      48.467 -21.960  -4.878  0.00  0.00     0.008 A 
ATOM      4  C   UNL d   1      49.257 -22.921  -6.083  0.00  0.00    -0.029 A 
ATOM      5  C   UNL d   1      49.095 -23.742  -5.535  0.00  0.00     0.072 A 
ATOM      6  C   UNL d   1      48.943 -22.030  -5.754  0.00  0.00     0.010 A 
ATOM      7  C   UNL d   1      49.734 -22.991  -6.960  0.00  0.00     0.051 C 
ENDROOT
BRANCH   1   8
ATOM      8  C   UNL d   1      47.829 -22.711  -3.453  0.00  0.00     0.010 C 
ATOM      9  C   UNL d   1      47.849 -21.853  -2.941  0.00  0.00     0.015 C 
ATOM     10  C   UNL d   1      47.333 -23.500  -3.089  0.00  0.00     0.015 C 
ENDBRANCH   1   8
BRANCH   5  11
ATOM     11  O   UNL d   1      49.410 -24.632  -5.864  0.00  0.00    -0.360 OA
ATOM     12  H   UNL d   1      49.716 -24.674  -6.401  0.00  0.00     0.217 HD
ENDBRANCH   5  11
TORSDOF 2
ENDMDL
MODEL 2
REMARK VINA RESULT:    -3.562      1.484      2.501
REMARK INTER + INTRA:          -3.090
REMARK INTER:                  -4.061
REMARK INTRA:                   0.971
REMARK UNBOUND:                 0.784
REMARK  2 active torsions:
REMARK  status: ('A' for Active; 'I' for Inactive)
REMARK    1  A    between atoms: O_1  and  C_9 
REMARK    2  A    between atoms: C_2  and  C_3 
ROOT
ATOM      1  C   UNL d   1      47.478 -22.086  -2.383  0.00  0.00    -0.052 A 
ATOM      2  C   UNL d   1      47.293 -23.056  -2.544  0.00  0.00     0.044 A 
ATOM      3  C   UNL d   1      47.960 -21.548  -3.074  0.00  0.00     0.008 A 
ATOM      4  C   UNL d   1      48.073 -22.948  -4.086  0.00  0.00    -0.029 A 
ATOM      5  C   UNL d   1      47.591 -23.487  -3.396  0.00  0.00     0.072 A 
ATOM      6  C   UNL d   1      48.258 -21.979  -3.925  0.00  0.00     0.010 A 
ATOM      7  C   UNL d   1      48.371 -23.379  -4.938  0.00  0.00     0.051 C 
ENDROOT
BRANCH   1   8
ATOM      8  C   UNL d   1      47.180 -21.655  -1.531  0.00  0.00     0.010 C 
ATOM      9  C   UNL d   1      46.653 -22.180  -0.863  0.00  0.00     0.015 C 
ATOM     10  C   UNL d   1      47.410 -20.699  -1.348  0.00  0.00     0.015 C 
ENDBRANCH   1   8
BRANCH   5  11
ATOM     11  O   UNL d   1      47.406 -24.456  -3.556  0.00  0.00    -0.360 OA
ATOM     12  H   UNL d   1      47.239 -24.650  -4.121  0.00  0.00     0.217 HD
ENDBRANCH   5  11
TORSDOF 2
ENDMDL
MODEL 3
REMARK VINA RESULT:    -3.561      2.292      3.937
REMARK INTER + INTRA:          -3.089
REMARK INTER:                  -4.060
REMARK INTRA:                   0.971
REMARK UNBOUND:                 0.784
REMARK  2 active torsions:
REMARK  status: ('A' for Active; 'I' for Inactive)
REMARK    1  A    between atoms: O_1  and  C_9 
REMARK    2  A    between atoms: C_2  and  C_3 
ROOT
ATOM      1  C   UNL d   1      48.129 -21.631  -3.579  0.00  0.00    -0.052 A 
ATOM      2  C   UNL d   1      47.968 -21.059  -2.774  0.00  0.00     0.044 A 
ATOM      3  C   UNL d   1      47.824 -22.583  -3.584  0.00  0.00     0.008 A 
ATOM      4  C   UNL d   1      47.199 -22.392  -1.980  0.00  0.00    -0.029 A 
ATOM      5  C   UNL d   1      47.504 -21.440  -1.975  0.00  0.00     0.072 A 
ATOM      6  C   UNL d   1      47.359 -22.964  -2.784  0.00  0.00     0.010 A 
ATOM      7  C   UNL d   1      46.735 -22.773  -1.180  0.00  0.00     0.051 C 
ENDROOT
BRANCH   1   8
ATOM      8  C   UNL d   1      48.593 -21.250  -4.378  0.00  0.00     0.010 C 
ATOM      9  C   UNL d   1      48.960 -20.320  -4.348  0.00  0.00     0.015 C 
ATOM     10  C   UNL d   1      48.691 -21.799  -5.208  0.00  0.00     0.015 C 
ENDBRANCH   1   8
BRANCH   5  11
ATOM     11  O   UNL d   1      47.344 -20.868  -1.170  0.00  0.00    -0.360 OA
ATOM     12  H   UNL d   1      47.793 -20.498  -0.959  0.00  0.00     0.217 HD
ENDBRANCH   5  11
TORSDOF 2
ENDMDL
MODEL 4
REMARK VINA RESULT:    -2.478      5.077      6.610
REMARK INTER + INTRA:          -1.912
REMARK INTER:                  -2.691
REMARK INTRA:                   0.779
REMARK UNBOUND:                 0.784
REMARK  2 active torsions:
REMARK  status: ('A' for Active; 'I' for Inactive)
REMARK    1  A    between atoms: O_1  and  C_9 
REMARK    2  A    between atoms: C_2  and  C_3 
ROOT
ATOM      1  C   UNL d   1      47.819 -27.582  -1.775  0.00  0.00    -0.052 A 
ATOM      2  C   UNL d   1      48.746 -27.956  -1.770  0.00  0.00     0.044 A 
ATOM      3  C   UNL d   1      47.280 -27.571  -0.932  0.00  0.00     0.008 A 
ATOM      4  C   UNL d   1      48.596 -28.307  -0.081  0.00  0.00    -0.029 A 
ATOM      5  C   UNL d   1      49.135 -28.319  -0.923  0.00  0.00     0.072 A 
ATOM      6  C   UNL d   1      47.669 -27.933  -0.085  0.00  0.00     0.010 A 
ATOM      7  C   UNL d   1      48.985 -28.670   0.767  0.00  0.00     0.051 C 
ENDROOT
BRANCH   1   8
ATOM      8  C   UNL d   1      47.430 -27.220  -2.622  0.00  0.00     0.010 C 
ATOM      9  C   UNL d   1      47.043 -27.843  -3.301  0.00  0.00     0.015 C 
ATOM     10  C   UNL d   1      47.428 -26.234  -2.789  0.00  0.00     0.015 C 
ENDBRANCH   1   8
BRANCH   5  11
ATOM     11  O   UNL d   1      50.062 -28.693  -0.918  0.00  0.00    -0.360 OA
ATOM     12  H   UNL d   1      50.544 -28.327  -0.780  0.00  0.00     0.217 HD
ENDBRANCH   5  11
TORSDOF 2
ENDMDL
MODEL 5
REMARK VINA RESULT:    -1.929      8.097      8.949
REMARK INTER + INTRA:          -1.314
REMARK INTER:                  -2.098
REMARK INTRA:                   0.784
REMARK UNBOUND:                 0.784
REMARK  2 active torsions:
REMARK  status: ('A' for Active; 'I' for Inactive)
REMARK    1  A    between atoms: O_1  and  C_9 
REMARK    2  A    between atoms: C_2  and  C_3 
ROOT
ATOM      1  C   UNL d   1      47.685 -22.601   3.973  0.00  0.00    -0.052 A 
ATOM      2  C   UNL d   1      48.236 -21.789   4.165  0.00  0.00     0.044 A 
ATOM      3  C   UNL d   1      47.013 -22.586   3.232  0.00  0.00     0.008 A 
ATOM      4  C   UNL d   1      47.444 -20.947   2.876  0.00  0.00    -0.029 A 
ATOM      5  C   UNL d   1      48.116 -20.962   3.616  0.00  0.00     0.072 A 
ATOM      6  C   UNL d   1      46.893 -21.759   2.684  0.00  0.00     0.010 A 
ATOM      7  C   UNL d   1      47.323 -20.119   2.327  0.00  0.00     0.051 C 
ENDROOT
BRANCH   1   8
ATOM      8  C   UNL d   1      47.806 -23.429   4.521  0.00  0.00     0.010 C 
ATOM      9  C   UNL d   1      48.588 -24.030   4.354  0.00  0.00     0.015 C 
ATOM     10  C   UNL d   1      47.145 -23.655   5.236  0.00  0.00     0.015 C 
ENDBRANCH   1   8
BRANCH   5  11
ATOM     11  O   UNL d   1      48.667 -20.150   3.808  0.00  0.00    -0.360 OA
ATOM     12  H   UNL d   1      48.518 -19.606   3.550  0.00  0.00     0.217 HD
ENDBRANCH   5  11
TORSDOF 2
ENDMDL
