MODEL 1
REMARK VINA RESULT:    -4.539      0.000      0.000
REMARK INTER + INTRA:           5.816
REMARK INTER:                  -8.507
REMARK INTRA:                  14.323
REMARK UNBOUND:                14.335
REMARK  18 active torsions:
REMARK  status: ('A' for Active; 'I' for Inactive)
REMARK    1  A    between atoms: C_17  and  O_1 
REMARK    2  A    between atoms: C_19  and  O_1 
REMARK    3  A    between atoms: C_16  and  O_4 
REMARK    4  A    between atoms: C_18  and  O_5 
REMARK    5  A    between atoms: C_20  and  O_6 
REMARK    6  A    between atoms: C_22  and  O_7 
REMARK    7  A    between atoms: O_7  and  C_27 
REMARK    8  A    between atoms: C_21  and  O_8 
REMARK    9  A    between atoms: O_9  and  C_25 
REMARK   10  A    between atoms: O_9  and  C_28 
REMARK   11  A    between atoms: O_10  and  C_26 
REMARK   12  A    between atoms: O_12  and  C_32 
REMARK   13  A    between atoms: O_13  and  C_34 
REMARK   14  A    between atoms: O_14  and  C_37 
REMARK   15  A    between atoms: O_15  and  C_39 
REMARK   16  A    between atoms: C_16  and  C_25 
REMARK   17  A    between atoms: C_24  and  C_26 
REMARK   18  A    between atoms: C_28  and  C_31 
ROOT
ATOM      1  O   UNL d   1      48.211 -24.799  -8.737  0.00  0.00    -0.348 OA
ATOM      2  C   UNL d   1      48.022 -25.646  -7.238  0.00  0.00     0.211 A 
ATOM      3  C   UNL d   1      47.706 -26.454  -7.735  0.00  0.00     0.183 A 
ATOM      4  C   UNL d   1      47.642 -26.435  -8.732  0.00  0.00     0.180 A 
ATOM      5  C   UNL d   1      48.275 -24.818  -7.739  0.00  0.00     0.298 A 
ATOM      6  C   UNL d   1      47.895 -25.607  -9.233  0.00  0.00     0.179 A 
ENDROOT
BRANCH   2   7
ATOM      7  O   UNL d   1      48.086 -25.666  -6.240  0.00  0.00    -0.346 OA
BRANCH   7   8
ATOM      8  C   UNL d   1      47.338 -25.303  -5.684  0.00  0.00     0.292 A 
ATOM      9  O   UNL d   1      46.371 -25.289  -5.936  0.00  0.00    -0.355 OA
ATOM     10  C   UNL d   1      45.862 -24.868  -5.186  0.00  0.00     0.213 A 
ATOM     11  C   UNL d   1      46.514 -24.622  -4.470  0.00  0.00     0.131 A 
ATOM     12  C   UNL d   1      47.427 -24.890  -4.777  0.00  0.00     0.211 A 
BRANCH  11  13
ATOM     13  O   UNL d   1      45.766 -24.259  -3.914  0.00  0.00    -0.383 OA
ATOM     14  H   UNL d   1      45.576 -24.568  -3.411  0.00  0.00     0.210 HD
ENDBRANCH  11  13
BRANCH  11  15
ATOM     15  C   UNL d   1      46.903 -24.275  -3.617  0.00  0.00     0.221 C 
BRANCH  15  16
ATOM     16  O   UNL d   1      46.700 -23.343  -3.316  0.00  0.00    -0.314 OA
BRANCH  16  17
ATOM     17  C   UNL d   1      47.068 -23.005  -2.451  0.00  0.00     0.293 C 
ATOM     18  O   UNL d   1      47.120 -23.612  -1.658  0.00  0.00    -0.259 OA
BRANCH  17  19
ATOM     19  C   UNL d   1      47.385 -22.059  -2.378  0.00  0.00     0.042 A 
ATOM     20  C   UNL d   1      47.925 -21.655  -3.115  0.00  0.00     0.057 A 
ATOM     21  C   UNL d   1      48.242 -20.709  -3.042  0.00  0.00     0.102 A 
ATOM     22  C   UNL d   1      48.019 -20.168  -2.231  0.00  0.00     0.099 A 
ATOM     23  C   UNL d   1      47.479 -20.573  -1.494  0.00  0.00     0.040 A 
ATOM     24  C   UNL d   1      47.162 -21.519  -1.567  0.00  0.00     0.020 A 
BRANCH  21  25
ATOM     25  O   UNL d   1      48.783 -20.304  -3.781  0.00  0.00    -0.353 OA
ATOM     26  C   UNL d   1      48.756 -20.704  -4.697  0.00  0.00     0.210 C 
ENDBRANCH  21  25
BRANCH  22  27
ATOM     27  O   UNL d   1      48.336 -19.223  -2.158  0.00  0.00    -0.358 OA
ATOM     28  H   UNL d   1      47.961 -18.756  -2.322  0.00  0.00     0.217 HD
ENDBRANCH  22  27
ENDBRANCH  17  19
ENDBRANCH  16  17
ENDBRANCH  15  16
ENDBRANCH  11  15
BRANCH  12  29
ATOM     29  O   UNL d   1      48.278 -24.767  -4.268  0.00  0.00    -0.387 OA
ATOM     30  H   UNL d   1      48.264 -24.704  -3.651  0.00  0.00     0.210 HD
ENDBRANCH  12  29
ENDBRANCH   7   8
ENDBRANCH   2   7
BRANCH   3  31
ATOM     31  O   UNL d   1      47.453 -27.282  -7.234  0.00  0.00    -0.390 OA
ATOM     32  H   UNL d   1      47.832 -27.508  -6.798  0.00  0.00     0.210 HD
ENDBRANCH   3  31
BRANCH   5  33
ATOM     33  O   UNL d   1      48.591 -24.010  -7.242  0.00  0.00    -0.318 OA
BRANCH  33  34
ATOM     34  C   UNL d   1      48.748 -23.152  -7.731  0.00  0.00     0.075 A 
ATOM     35  C   UNL d   1      47.984 -22.532  -7.910  0.00  0.00     0.076 A 
ATOM     36  C   UNL d   1      48.140 -21.674  -8.399  0.00  0.00     0.104 A 
ATOM     37  C   UNL d   1      49.061 -21.436  -8.709  0.00  0.00     0.101 A 
ATOM     38  C   UNL d   1      49.825 -22.056  -8.530  0.00  0.00     0.042 A 
ATOM     39  C   UNL d   1      49.668 -22.914  -8.041  0.00  0.00     0.040 A 
BRANCH  36  40
ATOM     40  O   UNL d   1      47.376 -21.054  -8.579  0.00  0.00    -0.353 OA
ATOM     41  C   UNL d   1      46.440 -21.344  -8.380  0.00  0.00     0.210 C 
ENDBRANCH  36  40
BRANCH  37  42
ATOM     42  O   UNL d   1      49.217 -20.578  -9.199  0.00  0.00    -0.353 OA
ATOM     43  C   UNL d   1      50.061 -20.446  -9.719  0.00  0.00     0.210 C 
ENDBRANCH  37  42
ENDBRANCH  33  34
ENDBRANCH   5  33
BRANCH   4  44
ATOM     44  O   UNL d   1      47.325 -27.243  -9.229  0.00  0.00    -0.390 OA
ATOM     45  H   UNL d   1      46.719 -27.366  -9.266  0.00  0.00     0.210 HD
ENDBRANCH   4  44
BRANCH   6  46
ATOM     46  C   UNL d   1      47.831 -25.587 -10.231  0.00  0.00     0.198 C 
BRANCH  46  47
ATOM     47  O   UNL d   1      47.631 -24.728 -10.703  0.00  0.00    -0.398 OA
ATOM     48  H   UNL d   1      47.097 -24.432 -10.594  0.00  0.00     0.209 HD
ENDBRANCH  46  47
ENDBRANCH   6  46
TORSDOF 18
ENDMDL
MODEL 2
REMARK VINA RESULT:    -4.348      1.772      4.578
REMARK INTER + INTRA:           6.175
REMARK INTER:                  -8.371
REMARK INTRA:                  14.546
REMARK UNBOUND:                14.335
REMARK  18 active torsions:
REMARK  status: ('A' for Active; 'I' for Inactive)
REMARK    1  A    between atoms: C_17  and  O_1 
REMARK    2  A    between atoms: C_19  and  O_1 
REMARK    3  A    between atoms: C_16  and  O_4 
REMARK    4  A    between atoms: C_18  and  O_5 
REMARK    5  A    between atoms: C_20  and  O_6 
REMARK    6  A    between atoms: C_22  and  O_7 
REMARK    7  A    between atoms: O_7  and  C_27 
REMARK    8  A    between atoms: C_21  and  O_8 
REMARK    9  A    between atoms: O_9  and  C_25 
REMARK   10  A    between atoms: O_9  and  C_28 
REMARK   11  A    between atoms: O_10  and  C_26 
REMARK   12  A    between atoms: O_12  and  C_32 
REMARK   13  A    between atoms: O_13  and  C_34 
REMARK   14  A    between atoms: O_14  and  C_37 
REMARK   15  A    between atoms: O_15  and  C_39 
REMARK   16  A    between atoms: C_16  and  C_25 
REMARK   17  A    between atoms: C_24  and  C_26 
REMARK   18  A    between atoms: C_28  and  C_31 
ROOT
ATOM      1  O   UNL d   1      47.326 -26.903  -8.907  0.00  0.00    -0.348 OA
ATOM      2  C   UNL d   1      47.474 -25.179  -8.989  0.00  0.00     0.211 A 
ATOM      3  C   UNL d   1      47.851 -25.255  -9.912  0.00  0.00     0.183 A 
ATOM      4  C   UNL d   1      47.966 -26.156 -10.333  0.00  0.00     0.180 A 
ATOM      5  C   UNL d   1      47.212 -26.003  -8.487  0.00  0.00     0.298 A 
ATOM      6  C   UNL d   1      47.703 -26.979  -9.830  0.00  0.00     0.179 A 
ENDROOT
BRANCH   2   7
ATOM      7  O   UNL d   1      47.360 -24.279  -8.569  0.00  0.00    -0.346 OA
BRANCH   7   8
ATOM      8  C   UNL d   1      48.066 -23.918  -7.961  0.00  0.00     0.292 A 
ATOM      9  O   UNL d   1      49.031 -24.178  -7.961  0.00  0.00    -0.355 OA
ATOM     10  C   UNL d   1      49.493 -23.654  -7.245  0.00  0.00     0.213 A 
ATOM     11  C   UNL d   1      48.813 -23.069  -6.803  0.00  0.00     0.131 A 
ATOM     12  C   UNL d   1      47.931 -23.232  -7.245  0.00  0.00     0.211 A 
BRANCH  11  13
ATOM     13  O   UNL d   1      49.520 -22.708  -6.194  0.00  0.00    -0.383 OA
ATOM     14  H   UNL d   1      50.058 -23.009  -6.131  0.00  0.00     0.210 HD
ENDBRANCH  11  13
BRANCH  11  15
ATOM     15  C   UNL d   1      48.385 -22.402  -6.194  0.00  0.00     0.221 C 
BRANCH  15  16
ATOM     16  O   UNL d   1      48.587 -22.417  -5.215  0.00  0.00    -0.314 OA
BRANCH  16  17
ATOM     17  C   UNL d   1      48.178 -21.733  -4.610  0.00  0.00     0.293 C 
ATOM     18  O   UNL d   1      48.090 -20.785  -4.914  0.00  0.00    -0.259 OA
BRANCH  17  19
ATOM     19  C   UNL d   1      47.858 -21.998  -3.700  0.00  0.00     0.042 A 
ATOM     20  C   UNL d   1      47.500 -22.918  -3.545  0.00  0.00     0.057 A 
ATOM     21  C   UNL d   1      47.179 -23.183  -2.635  0.00  0.00     0.102 A 
ATOM     22  C   UNL d   1      47.218 -22.528  -1.881  0.00  0.00     0.099 A 
ATOM     23  C   UNL d   1      47.577 -21.608  -2.036  0.00  0.00     0.040 A 
ATOM     24  C   UNL d   1      47.897 -21.343  -2.946  0.00  0.00     0.020 A 
BRANCH  21  25
ATOM     25  O   UNL d   1      46.820 -24.104  -2.480  0.00  0.00    -0.353 OA
ATOM     26  C   UNL d   1      47.141 -24.867  -3.041  0.00  0.00     0.210 C 
ENDBRANCH  21  25
BRANCH  22  27
ATOM     27  O   UNL d   1      46.898 -22.793  -0.971  0.00  0.00    -0.358 OA
ATOM     28  H   UNL d   1      46.955 -23.380  -0.782  0.00  0.00     0.217 HD
ENDBRANCH  22  27
ENDBRANCH  17  19
ENDBRANCH  16  17
ENDBRANCH  15  16
ENDBRANCH  11  15
BRANCH  12  29
ATOM     29  O   UNL d   1      47.066 -22.788  -7.012  0.00  0.00    -0.387 OA
ATOM     30  H   UNL d   1      46.854 -22.808  -6.429  0.00  0.00     0.210 HD
ENDBRANCH  12  29
ENDBRANCH   7   8
ENDBRANCH   2   7
BRANCH   3  31
ATOM     31  O   UNL d   1      48.114 -24.432 -10.415  0.00  0.00    -0.390 OA
ATOM     32  H   UNL d   1      48.654 -24.413 -10.720  0.00  0.00     0.210 HD
ENDBRANCH   3  31
BRANCH   5  33
ATOM     33  O   UNL d   1      46.834 -25.926  -7.564  0.00  0.00    -0.318 OA
BRANCH  33  34
ATOM     34  C   UNL d   1      46.695 -26.748  -7.011  0.00  0.00     0.075 A 
ATOM     35  C   UNL d   1      45.841 -27.262  -7.085  0.00  0.00     0.076 A 
ATOM     36  C   UNL d   1      45.701 -28.083  -6.532  0.00  0.00     0.104 A 
ATOM     37  C   UNL d   1      46.417 -28.391  -5.905  0.00  0.00     0.101 A 
ATOM     38  C   UNL d   1      47.272 -27.877  -5.831  0.00  0.00     0.042 A 
ATOM     39  C   UNL d   1      47.411 -27.055  -6.384  0.00  0.00     0.040 A 
BRANCH  36  40
ATOM     40  O   UNL d   1      44.847 -28.597  -6.607  0.00  0.00    -0.353 OA
ATOM     41  C   UNL d   1      44.385 -28.674  -7.490  0.00  0.00     0.210 C 
ENDBRANCH  36  40
BRANCH  37  42
ATOM     42  O   UNL d   1      46.278 -29.212  -5.352  0.00  0.00    -0.353 OA
ATOM     43  C   UNL d   1      46.992 -29.519  -4.723  0.00  0.00     0.210 C 
ENDBRANCH  37  42
ENDBRANCH  33  34
ENDBRANCH   5  33
BRANCH   4  44
ATOM     44  O   UNL d   1      48.343 -26.232 -11.256  0.00  0.00    -0.390 OA
ATOM     45  H   UNL d   1      48.595 -25.736 -11.530  0.00  0.00     0.210 HD
ENDBRANCH   4  44
BRANCH   6  46
ATOM     46  C   UNL d   1      47.818 -27.879 -10.250  0.00  0.00     0.198 C 
BRANCH  46  47
ATOM     47  O   UNL d   1      48.286 -28.608  -9.751  0.00  0.00    -0.398 OA
ATOM     48  H   UNL d   1      48.136 -29.201  -9.855  0.00  0.00     0.209 HD
ENDBRANCH  46  47
ENDBRANCH   6  46
TORSDOF 18
ENDMDL
MODEL 3
REMARK VINA RESULT:    -4.313      1.326      1.693
REMARK INTER + INTRA:           6.240
REMARK INTER:                  -8.008
REMARK INTRA:                  14.249
REMARK UNBOUND:                14.335
REMARK  18 active torsions:
REMARK  status: ('A' for Active; 'I' for Inactive)
REMARK    1  A    between atoms: C_17  and  O_1 
REMARK    2  A    between atoms: C_19  and  O_1 
REMARK    3  A    between atoms: C_16  and  O_4 
REMARK    4  A    between atoms: C_18  and  O_5 
REMARK    5  A    between atoms: C_20  and  O_6 
REMARK    6  A    between atoms: C_22  and  O_7 
REMARK    7  A    between atoms: O_7  and  C_27 
REMARK    8  A    between atoms: C_21  and  O_8 
REMARK    9  A    between atoms: O_9  and  C_25 
REMARK   10  A    between atoms: O_9  and  C_28 
REMARK   11  A    between atoms: O_10  and  C_26 
REMARK   12  A    between atoms: O_12  and  C_32 
REMARK   13  A    between atoms: O_13  and  C_34 
REMARK   14  A    between atoms: O_14  and  C_37 
REMARK   15  A    between atoms: O_15  and  C_39 
REMARK   16  A    between atoms: C_16  and  C_25 
REMARK   17  A    between atoms: C_24  and  C_26 
REMARK   18  A    between atoms: C_28  and  C_31 
ROOT
ATOM      1  O   UNL d   1      47.575 -26.439  -7.655  0.00  0.00    -0.348 OA
ATOM      2  C   UNL d   1      47.207 -27.057  -6.080  0.00  0.00     0.211 A 
ATOM      3  C   UNL d   1      46.781 -27.861  -6.495  0.00  0.00     0.183 A 
ATOM      4  C   UNL d   1      46.753 -27.954  -7.490  0.00  0.00     0.180 A 
ATOM      5  C   UNL d   1      47.604 -26.346  -6.660  0.00  0.00     0.298 A 
ATOM      6  C   UNL d   1      47.150 -27.243  -8.070  0.00  0.00     0.179 A 
ENDROOT
BRANCH   2   7
ATOM      7  O   UNL d   1      47.235 -26.964  -5.085  0.00  0.00    -0.346 OA
BRANCH   7   8
ATOM      8  C   UNL d   1      46.534 -26.430  -4.612  0.00  0.00     0.292 A 
ATOM      9  O   UNL d   1      45.581 -26.329  -4.895  0.00  0.00    -0.355 OA
ATOM     10  C   UNL d   1      45.122 -25.739  -4.232  0.00  0.00     0.213 A 
ATOM     11  C   UNL d   1      45.791 -25.475  -3.537  0.00  0.00     0.131 A 
ATOM     12  C   UNL d   1      46.664 -25.902  -3.772  0.00  0.00     0.211 A 
BRANCH  11  13
ATOM     13  O   UNL d   1      45.091 -24.940  -3.065  0.00  0.00    -0.383 OA
ATOM     14  H   UNL d   1      44.494 -25.105  -3.107  0.00  0.00     0.210 HD
ENDBRANCH  11  13
BRANCH  11  15
ATOM     15  C   UNL d   1      46.212 -25.059  -2.731  0.00  0.00     0.221 C 
BRANCH  15  16
ATOM     16  O   UNL d   1      46.095 -24.081  -2.555  0.00  0.00    -0.314 OA
BRANCH  16  17
ATOM     17  C   UNL d   1      46.522 -23.664  -1.753  0.00  0.00     0.293 C 
ATOM     18  O   UNL d   1      46.576 -24.172  -0.894  0.00  0.00    -0.259 OA
BRANCH  17  19
ATOM     19  C   UNL d   1      46.894 -22.737  -1.810  0.00  0.00     0.042 A 
ATOM     20  C   UNL d   1      47.438 -22.464  -2.604  0.00  0.00     0.057 A 
ATOM     21  C   UNL d   1      47.809 -21.538  -2.661  0.00  0.00     0.102 A 
ATOM     22  C   UNL d   1      47.638 -20.884  -1.924  0.00  0.00     0.099 A 
ATOM     23  C   UNL d   1      47.094 -21.157  -1.130  0.00  0.00     0.040 A 
ATOM     24  C   UNL d   1      46.722 -22.083  -1.074  0.00  0.00     0.020 A 
BRANCH  21  25
ATOM     25  O   UNL d   1      48.354 -21.265  -3.455  0.00  0.00    -0.353 OA
ATOM     26  C   UNL d   1      48.400 -21.860  -4.257  0.00  0.00     0.210 C 
ENDBRANCH  21  25
BRANCH  22  27
ATOM     27  O   UNL d   1      48.009 -19.958  -1.981  0.00  0.00    -0.358 OA
ATOM     28  H   UNL d   1      48.609 -19.856  -1.860  0.00  0.00     0.217 HD
ENDBRANCH  22  27
ENDBRANCH  17  19
ENDBRANCH  16  17
ENDBRANCH  15  16
ENDBRANCH  11  15
BRANCH  12  29
ATOM     29  O   UNL d   1      47.518 -25.816  -3.258  0.00  0.00    -0.387 OA
ATOM     30  H   UNL d   1      47.891 -26.307  -3.193  0.00  0.00     0.210 HD
ENDBRANCH  12  29
ENDBRANCH   7   8
ENDBRANCH   2   7
BRANCH   3  31
ATOM     31  O   UNL d   1      46.384 -28.573  -5.915  0.00  0.00    -0.390 OA
ATOM     32  H   UNL d   1      45.773 -28.675  -5.924  0.00  0.00     0.210 HD
ENDBRANCH   3  31
BRANCH   5  33
ATOM     33  O   UNL d   1      48.029 -25.542  -6.245  0.00  0.00    -0.318 OA
BRANCH  33  34
ATOM     34  C   UNL d   1      48.214 -24.731  -6.800  0.00  0.00     0.075 A 
ATOM     35  C   UNL d   1      47.463 -24.127  -7.068  0.00  0.00     0.076 A 
ATOM     36  C   UNL d   1      47.648 -23.316  -7.623  0.00  0.00     0.104 A 
ATOM     37  C   UNL d   1      48.583 -23.109  -7.911  0.00  0.00     0.101 A 
ATOM     38  C   UNL d   1      49.333 -23.714  -7.643  0.00  0.00     0.042 A 
ATOM     39  C   UNL d   1      49.149 -24.524  -7.088  0.00  0.00     0.040 A 
BRANCH  36  40
ATOM     40  O   UNL d   1      46.897 -22.711  -7.890  0.00  0.00    -0.353 OA
ATOM     41  C   UNL d   1      45.951 -22.976  -7.703  0.00  0.00     0.210 C 
ENDBRANCH  36  40
BRANCH  37  42
ATOM     42  O   UNL d   1      48.767 -22.298  -8.466  0.00  0.00    -0.353 OA
ATOM     43  C   UNL d   1      49.710 -22.051  -8.693  0.00  0.00     0.210 C 
ENDBRANCH  37  42
ENDBRANCH  33  34
ENDBRANCH   5  33
BRANCH   4  44
ATOM     44  O   UNL d   1      46.327 -28.758  -7.905  0.00  0.00    -0.390 OA
ATOM     45  H   UNL d   1      45.730 -28.742  -8.071  0.00  0.00     0.210 HD
ENDBRANCH   4  44
BRANCH   6  46
ATOM     46  C   UNL d   1      47.121 -27.336  -9.066  0.00  0.00     0.198 C 
BRANCH  46  47
ATOM     47  O   UNL d   1      47.010 -26.525  -9.640  0.00  0.00    -0.398 OA
ATOM     48  H   UNL d   1      47.420 -26.061  -9.605  0.00  0.00     0.209 HD
ENDBRANCH  46  47
ENDBRANCH   6  46
TORSDOF 18
ENDMDL
MODEL 4
REMARK VINA RESULT:    -4.269      1.660      2.248
REMARK INTER + INTRA:           6.322
REMARK INTER:                  -8.738
REMARK INTRA:                  15.060
REMARK UNBOUND:                14.335
REMARK  18 active torsions:
REMARK  status: ('A' for Active; 'I' for Inactive)
REMARK    1  A    between atoms: C_17  and  O_1 
REMARK    2  A    between atoms: C_19  and  O_1 
REMARK    3  A    between atoms: C_16  and  O_4 
REMARK    4  A    between atoms: C_18  and  O_5 
REMARK    5  A    between atoms: C_20  and  O_6 
REMARK    6  A    between atoms: C_22  and  O_7 
REMARK    7  A    between atoms: O_7  and  C_27 
REMARK    8  A    between atoms: C_21  and  O_8 
REMARK    9  A    between atoms: O_9  and  C_25 
REMARK   10  A    between atoms: O_9  and  C_28 
REMARK   11  A    between atoms: O_10  and  C_26 
REMARK   12  A    between atoms: O_12  and  C_32 
REMARK   13  A    between atoms: O_13  and  C_34 
REMARK   14  A    between atoms: O_14  and  C_37 
REMARK   15  A    between atoms: O_15  and  C_39 
REMARK   16  A    between atoms: C_16  and  C_25 
REMARK   17  A    between atoms: C_24  and  C_26 
REMARK   18  A    between atoms: C_28  and  C_31 
ROOT
ATOM      1  O   UNL d   1      47.617 -25.673 -10.442  0.00  0.00    -0.348 OA
ATOM      2  C   UNL d   1      47.247 -26.035  -8.789  0.00  0.00     0.211 A 
ATOM      3  C   UNL d   1      47.521 -26.985  -8.936  0.00  0.00     0.183 A 
ATOM      4  C   UNL d   1      47.843 -27.280  -9.836  0.00  0.00     0.180 A 
ATOM      5  C   UNL d   1      47.295 -25.379  -9.543  0.00  0.00     0.298 A 
ATOM      6  C   UNL d   1      47.891 -26.624 -10.589  0.00  0.00     0.179 A 
ENDROOT
BRANCH   2   7
ATOM      7  O   UNL d   1      46.925 -25.740  -7.890  0.00  0.00    -0.346 OA
BRANCH   7   8
ATOM      8  C   UNL d   1      47.578 -25.415  -7.206  0.00  0.00     0.292 A 
ATOM      9  O   UNL d   1      48.572 -25.380  -7.313  0.00  0.00    -0.355 OA
ATOM     10  C   UNL d   1      48.961 -25.011  -6.469  0.00  0.00     0.213 A 
ATOM     11  C   UNL d   1      48.207 -24.818  -5.840  0.00  0.00     0.131 A 
ATOM     12  C   UNL d   1      47.353 -25.068  -6.296  0.00  0.00     0.211 A 
BRANCH  11  13
ATOM     13  O   UNL d   1      48.861 -24.493  -5.157  0.00  0.00    -0.383 OA
ATOM     14  H   UNL d   1      49.308 -24.871  -4.951  0.00  0.00     0.210 HD
ENDBRANCH  11  13
BRANCH  11  15
ATOM     15  C   UNL d   1      47.693 -24.534  -5.031  0.00  0.00     0.221 C 
BRANCH  15  16
ATOM     16  O   UNL d   1      48.020 -23.772  -4.473  0.00  0.00    -0.314 OA
BRANCH  16  17
ATOM     17  C   UNL d   1      47.511 -23.494  -3.659  0.00  0.00     0.293 C 
ATOM     18  O   UNL d   1      46.838 -24.113  -3.254  0.00  0.00    -0.259 OA
BRANCH  17  19
ATOM     19  C   UNL d   1      47.674 -22.596  -3.249  0.00  0.00     0.042 A 
ATOM     20  C   UNL d   1      48.131 -21.881  -3.778  0.00  0.00     0.057 A 
ATOM     21  C   UNL d   1      48.294 -20.984  -3.368  0.00  0.00     0.102 A 
ATOM     22  C   UNL d   1      48.001 -20.802  -2.430  0.00  0.00     0.099 A 
ATOM     23  C   UNL d   1      47.544 -21.517  -1.901  0.00  0.00     0.040 A 
ATOM     24  C   UNL d   1      47.381 -22.414  -2.311  0.00  0.00     0.020 A 
BRANCH  21  25
ATOM     25  O   UNL d   1      48.752 -20.268  -3.897  0.00  0.00    -0.353 OA
ATOM     26  C   UNL d   1      49.107 -20.471  -4.810  0.00  0.00     0.210 C 
ENDBRANCH  21  25
BRANCH  22  27
ATOM     27  O   UNL d   1      48.164 -19.904  -2.020  0.00  0.00    -0.358 OA
ATOM     28  H   UNL d   1      47.865 -19.405  -2.237  0.00  0.00     0.217 HD
ENDBRANCH  22  27
ENDBRANCH  17  19
ENDBRANCH  16  17
ENDBRANCH  15  16
ENDBRANCH  11  15
BRANCH  12  29
ATOM     29  O   UNL d   1      46.435 -24.985  -5.909  0.00  0.00    -0.387 OA
ATOM     30  H   UNL d   1      46.202 -24.424  -5.781  0.00  0.00     0.210 HD
ENDBRANCH  12  29
ENDBRANCH   7   8
ENDBRANCH   2   7
BRANCH   3  31
ATOM     31  O   UNL d   1      47.472 -27.641  -8.183  0.00  0.00    -0.390 OA
ATOM     32  H   UNL d   1      46.943 -27.943  -8.068  0.00  0.00     0.210 HD
ENDBRANCH   3  31
BRANCH   5  33
ATOM     33  O   UNL d   1      47.021 -24.428  -9.396  0.00  0.00    -0.318 OA
BRANCH  33  34
ATOM     34  C   UNL d   1      47.282 -23.725 -10.058  0.00  0.00     0.075 A 
ATOM     35  C   UNL d   1      46.688 -23.529 -10.838  0.00  0.00     0.076 A 
ATOM     36  C   UNL d   1      46.949 -22.826 -11.500  0.00  0.00     0.104 A 
ATOM     37  C   UNL d   1      47.802 -22.319 -11.381  0.00  0.00     0.101 A 
ATOM     38  C   UNL d   1      48.395 -22.515 -10.601  0.00  0.00     0.042 A 
ATOM     39  C   UNL d   1      48.135 -23.218  -9.939  0.00  0.00     0.040 A 
BRANCH  36  40
ATOM     40  O   UNL d   1      46.355 -22.630 -12.281  0.00  0.00    -0.353 OA
ATOM     41  C   UNL d   1      45.569 -23.218 -12.471  0.00  0.00     0.210 C 
ENDBRANCH  36  40
BRANCH  37  42
ATOM     42  O   UNL d   1      48.062 -21.616 -12.043  0.00  0.00    -0.353 OA
ATOM     43  C   UNL d   1      48.623 -20.840 -11.754  0.00  0.00     0.210 C 
ENDBRANCH  37  42
ENDBRANCH  33  34
ENDBRANCH   5  33
BRANCH   4  44
ATOM     44  O   UNL d   1      48.117 -28.230  -9.982  0.00  0.00    -0.390 OA
ATOM     45  H   UNL d   1      48.704 -28.403  -9.882  0.00  0.00     0.210 HD
ENDBRANCH   4  44
BRANCH   6  46
ATOM     46  C   UNL d   1      48.213 -26.918 -11.489  0.00  0.00     0.198 C 
BRANCH  46  47
ATOM     47  O   UNL d   1      48.936 -26.406 -11.953  0.00  0.00    -0.398 OA
ATOM     48  H   UNL d   1      49.491 -26.341 -11.685  0.00  0.00     0.209 HD
ENDBRANCH  46  47
ENDBRANCH   6  46
TORSDOF 18
ENDMDL
MODEL 5
REMARK VINA RESULT:    -4.255      1.382      4.097
REMARK INTER + INTRA:           6.350
REMARK INTER:                  -7.837
REMARK INTRA:                  14.187
REMARK UNBOUND:                14.335
REMARK  18 active torsions:
REMARK  status: ('A' for Active; 'I' for Inactive)
REMARK    1  A    between atoms: C_17  and  O_1 
REMARK    2  A    between atoms: C_19  and  O_1 
REMARK    3  A    between atoms: C_16  and  O_4 
REMARK    4  A    between atoms: C_18  and  O_5 
REMARK    5  A    between atoms: C_20  and  O_6 
REMARK    6  A    between atoms: C_22  and  O_7 
REMARK    7  A    between atoms: O_7  and  C_27 
REMARK    8  A    between atoms: C_21  and  O_8 
REMARK    9  A    between atoms: O_9  and  C_25 
REMARK   10  A    between atoms: O_9  and  C_28 
REMARK   11  A    between atoms: O_10  and  C_26 
REMARK   12  A    between atoms: O_12  and  C_32 
REMARK   13  A    between atoms: O_13  and  C_34 
REMARK   14  A    between atoms: O_14  and  C_37 
REMARK   15  A    between atoms: O_15  and  C_39 
REMARK   16  A    between atoms: C_16  and  C_25 
REMARK   17  A    between atoms: C_24  and  C_26 
REMARK   18  A    between atoms: C_28  and  C_31 
ROOT
ATOM      1  O   UNL d   1      48.126 -23.971  -9.228  0.00  0.00    -0.348 OA
ATOM      2  C   UNL d   1      48.984 -22.504  -8.895  0.00  0.00     0.211 A 
ATOM      3  C   UNL d   1      48.957 -22.268  -9.866  0.00  0.00     0.183 A 
ATOM      4  C   UNL d   1      48.514 -22.883 -10.519  0.00  0.00     0.180 A 
ATOM      5  C   UNL d   1      48.569 -23.356  -8.576  0.00  0.00     0.298 A 
ATOM      6  C   UNL d   1      48.098 -23.735 -10.199  0.00  0.00     0.179 A 
ENDROOT
BRANCH   2   7
ATOM      7  O   UNL d   1      49.427 -21.889  -8.243  0.00  0.00    -0.346 OA
BRANCH   7   8
ATOM      8  C   UNL d   1      48.879 -21.240  -7.717  0.00  0.00     0.292 A 
ATOM      9  O   UNL d   1      48.074 -20.747  -8.046  0.00  0.00    -0.355 OA
ATOM     10  C   UNL d   1      47.736 -20.172  -7.302  0.00  0.00     0.213 A 
ATOM     11  C   UNL d   1      48.333 -20.308  -6.511  0.00  0.00     0.131 A 
ATOM     12  C   UNL d   1      49.039 -20.968  -6.767  0.00  0.00     0.211 A 
BRANCH  11  13
ATOM     13  O   UNL d   1      47.785 -19.659  -5.985  0.00  0.00    -0.383 OA
ATOM     14  H   UNL d   1      47.898 -19.574  -5.381  0.00  0.00     0.210 HD
ENDBRANCH  11  13
BRANCH  11  15
ATOM     15  C   UNL d   1      48.731 -20.238  -5.597  0.00  0.00     0.221 C 
BRANCH  15  16
ATOM     16  O   UNL d   1      48.141 -20.277  -4.790  0.00  0.00    -0.314 OA
BRANCH  16  17
ATOM     17  C   UNL d   1      48.543 -20.243  -3.875  0.00  0.00     0.293 C 
ATOM     18  O   UNL d   1      49.372 -19.709  -3.712  0.00  0.00    -0.259 OA
BRANCH  17  19
ATOM     19  C   UNL d   1      48.115 -20.743  -3.123  0.00  0.00     0.042 A 
ATOM     20  C   UNL d   1      47.949 -21.726  -3.206  0.00  0.00     0.057 A 
ATOM     21  C   UNL d   1      47.521 -22.226  -2.453  0.00  0.00     0.102 A 
ATOM     22  C   UNL d   1      47.258 -21.744  -1.618  0.00  0.00     0.099 A 
ATOM     23  C   UNL d   1      47.423 -20.762  -1.535  0.00  0.00     0.040 A 
ATOM     24  C   UNL d   1      47.852 -20.261  -2.287  0.00  0.00     0.020 A 
BRANCH  21  25
ATOM     25  O   UNL d   1      47.356 -23.210  -2.536  0.00  0.00    -0.353 OA
ATOM     26  C   UNL d   1      47.119 -23.604  -3.425  0.00  0.00     0.210 C 
ENDBRANCH  21  25
BRANCH  22  27
ATOM     27  O   UNL d   1      46.830 -22.244  -0.865  0.00  0.00    -0.358 OA
ATOM     28  H   UNL d   1      46.491 -22.750  -0.983  0.00  0.00     0.217 HD
ENDBRANCH  22  27
ENDBRANCH  17  19
ENDBRANCH  16  17
ENDBRANCH  15  16
ENDBRANCH  11  15
BRANCH  12  29
ATOM     29  O   UNL d   1      49.776 -21.299  -6.178  0.00  0.00    -0.387 OA
ATOM     30  H   UNL d   1      50.254 -21.609  -6.423  0.00  0.00     0.210 HD
ENDBRANCH  12  29
ENDBRANCH   7   8
ENDBRANCH   2   7
BRANCH   3  31
ATOM     31  O   UNL d   1      49.372 -21.416 -10.186  0.00  0.00    -0.390 OA
ATOM     32  H   UNL d   1      49.902 -21.431 -10.508  0.00  0.00     0.210 HD
ENDBRANCH   3  31
BRANCH   5  33
ATOM     33  O   UNL d   1      48.596 -23.593  -7.605  0.00  0.00    -0.318 OA
BRANCH  33  34
ATOM     34  C   UNL d   1      48.094 -24.390  -7.270  0.00  0.00     0.075 A 
ATOM     35  C   UNL d   1      47.112 -24.326  -7.096  0.00  0.00     0.076 A 
ATOM     36  C   UNL d   1      46.610 -25.123  -6.761  0.00  0.00     0.104 A 
ATOM     37  C   UNL d   1      47.090 -25.985  -6.601  0.00  0.00     0.101 A 
ATOM     38  C   UNL d   1      48.073 -26.050  -6.775  0.00  0.00     0.042 A 
ATOM     39  C   UNL d   1      48.575 -25.252  -7.109  0.00  0.00     0.040 A 
BRANCH  36  40
ATOM     40  O   UNL d   1      45.627 -25.058  -6.587  0.00  0.00    -0.353 OA
ATOM     41  C   UNL d   1      45.115 -24.258  -6.900  0.00  0.00     0.210 C 
ENDBRANCH  36  40
BRANCH  37  42
ATOM     42  O   UNL d   1      46.588 -26.783  -6.266  0.00  0.00    -0.353 OA
ATOM     43  C   UNL d   1      47.083 -27.609  -5.997  0.00  0.00     0.210 C 
ENDBRANCH  37  42
ENDBRANCH  33  34
ENDBRANCH   5  33
BRANCH   4  44
ATOM     44  O   UNL d   1      48.486 -22.647 -11.490  0.00  0.00    -0.390 OA
ATOM     45  H   UNL d   1      48.708 -23.043 -11.912  0.00  0.00     0.210 HD
ENDBRANCH   4  44
BRANCH   6  46
ATOM     46  C   UNL d   1      47.655 -24.350 -10.852  0.00  0.00     0.198 C 
BRANCH  46  47
ATOM     47  O   UNL d   1      47.820 -25.335 -10.801  0.00  0.00    -0.398 OA
ATOM     48  H   UNL d   1      47.468 -25.690 -10.434  0.00  0.00     0.209 HD
ENDBRANCH  46  47
ENDBRANCH   6  46
TORSDOF 18
ENDMDL
