MODEL 1
REMARK VINA RESULT:    -8.652      0.000      0.000
REMARK INTER + INTRA:          -3.867
REMARK INTER:                 -14.003
REMARK INTRA:                  10.136
REMARK UNBOUND:                 9.843
REMARK  14 active torsions:
REMARK  status: ('A' for Active; 'I' for Inactive)
REMARK    1  A    between atoms: C_15  and  O_1 
REMARK    2  A    between atoms: C_18  and  O_1 
REMARK    3  A    between atoms: C_16  and  O_4 
REMARK    4  A    between atoms: C_20  and  O_5 
REMARK    5  A    between atoms: O_5  and  C_27 
REMARK    6  A    between atoms: C_17  and  O_6 
REMARK    7  A    between atoms: C_19  and  O_7 
REMARK    8  A    between atoms: C_22  and  O_8 
REMARK    9  A    between atoms: C_23  and  O_9 
REMARK   10  A    between atoms: O_10  and  C_25 
REMARK   11  A    between atoms: O_12  and  C_31 
REMARK   12  A    between atoms: O_14  and  C_41 
REMARK   13  A    between atoms: C_21  and  C_25 
REMARK   14  A    between atoms: C_34  and  C_36 
ROOT
ATOM      1  O   UNL d   1      39.364  24.869  27.405  0.00  0.00    -0.348 OA
ATOM      2  C   UNL d   1      39.397  23.408  26.476  0.00  0.00     0.211 A 
ATOM      3  C   UNL d   1      40.025  23.001  27.139  0.00  0.00     0.183 A 
ATOM      4  C   UNL d   1      40.323  23.528  27.935  0.00  0.00     0.180 A 
ATOM      5  C   UNL d   1      39.067  24.342  26.609  0.00  0.00     0.298 A 
ATOM      6  C   UNL d   1      39.993  24.462  28.068  0.00  0.00     0.179 A 
ENDROOT
BRANCH   5   7
ATOM      7  O   UNL d   1      38.438  24.749  25.946  0.00  0.00    -0.318 OA
BRANCH   7   8
ATOM      8  C   UNL d   1      38.120  25.689  26.070  0.00  0.00     0.077 A 
ATOM      9  C   UNL d   1      38.596  26.474  25.577  0.00  0.00     0.075 A 
ATOM     10  C   UNL d   1      38.257  27.448  25.714  0.00  0.00     0.095 A 
ATOM     11  O   UNL d   1      38.718  28.197  25.237  0.00  0.00    -0.309 OA
ATOM     12  C   UNL d   1      37.479  27.642  26.313  0.00  0.00     0.081 A 
ATOM     13  C   UNL d   1      38.403  29.138  25.359  0.00  0.00     0.090 A 
ATOM     14  C   UNL d   1      37.626  29.331  25.957  0.00  0.00     0.094 A 
ATOM     15  C   UNL d   1      37.164  28.584  26.434  0.00  0.00     0.190 A 
ATOM     16  O   UNL d   1      36.387  28.777  27.033  0.00  0.00    -0.287 OA
ATOM     17  C   UNL d   1      36.988  26.873  26.816  0.00  0.00     0.085 A 
ATOM     18  C   UNL d   1      37.311  25.891  26.694  0.00  0.00     0.074 A 
BRANCH  13  19
ATOM     19  C   UNL d   1      38.865  29.886  24.882  0.00  0.00    -0.002 A 
ATOM     20  C   UNL d   1      39.034  30.751  25.353  0.00  0.00     0.017 A 
ATOM     21  C   UNL d   1      39.495  31.499  24.876  0.00  0.00     0.037 A 
ATOM     22  C   UNL d   1      39.788  31.381  23.927  0.00  0.00     0.065 A 
ATOM     23  C   UNL d   1      39.620  30.516  23.456  0.00  0.00     0.037 A 
ATOM     24  C   UNL d   1      39.158  29.768  23.933  0.00  0.00     0.017 A 
BRANCH  22  25
ATOM     25  O   UNL d   1      40.250  32.129  23.450  0.00  0.00    -0.361 OA
ATOM     26  H   UNL d   1      40.163  32.209  22.842  0.00  0.00     0.217 HD
ENDBRANCH  22  25
ENDBRANCH  13  19
BRANCH  17  27
ATOM     27  O   UNL d   1      36.212  27.079  27.412  0.00  0.00    -0.360 OA
ATOM     28  H   UNL d   1      36.152  26.784  27.955  0.00  0.00     0.217 HD
ENDBRANCH  17  27
ENDBRANCH   7   8
ENDBRANCH   5   7
BRANCH   2  29
ATOM     29  O   UNL d   1      39.099  22.880  25.680  0.00  0.00    -0.346 OA
BRANCH  29  30
ATOM     30  C   UNL d   1      38.361  22.212  25.771  0.00  0.00     0.292 A 
ATOM     31  O   UNL d   1      37.709  22.287  26.525  0.00  0.00    -0.351 OA
ATOM     32  C   UNL d   1      36.971  21.618  26.616  0.00  0.00     0.152 A 
ATOM     33  C   UNL d   1      36.886  20.874  25.953  0.00  0.00     0.178 A 
ATOM     34  C   UNL d   1      36.318  21.693  27.370  0.00  0.00     0.042 C 
ATOM     35  C   UNL d   1      37.538  20.799  25.199  0.00  0.00     0.183 A 
ATOM     36  C   UNL d   1      38.276  21.468  25.108  0.00  0.00     0.204 A 
BRANCH  33  37
ATOM     37  O   UNL d   1      36.148  20.206  26.044  0.00  0.00    -0.390 OA
ATOM     38  H   UNL d   1      36.018  19.960  26.599  0.00  0.00     0.210 HD
ENDBRANCH  33  37
BRANCH  35  39
ATOM     39  O   UNL d   1      37.453  20.056  24.536  0.00  0.00    -0.390 OA
ATOM     40  H   UNL d   1      36.983  20.054  24.131  0.00  0.00     0.210 HD
ENDBRANCH  35  39
BRANCH  36  41
ATOM     41  O   UNL d   1      38.928  21.393  24.354  0.00  0.00    -0.388 OA
ATOM     42  H   UNL d   1      39.060  20.838  24.112  0.00  0.00     0.210 HD
ENDBRANCH  36  41
ENDBRANCH  29  30
ENDBRANCH   2  29
BRANCH   6  43
ATOM     43  C   UNL d   1      40.290  24.990  28.863  0.00  0.00     0.198 C 
BRANCH  43  44
ATOM     44  O   UNL d   1      39.617  25.322  29.524  0.00  0.00    -0.398 OA
ATOM     45  H   UNL d   1      39.066  25.040  29.573  0.00  0.00     0.209 HD
ENDBRANCH  43  44
ENDBRANCH   6  43
BRANCH   3  46
ATOM     46  O   UNL d   1      40.356  22.066  27.006  0.00  0.00    -0.390 OA
ATOM     47  H   UNL d   1      40.603  21.899  26.463  0.00  0.00     0.210 HD
ENDBRANCH   3  46
BRANCH   4  48
ATOM     48  O   UNL d   1      40.951  23.121  28.598  0.00  0.00    -0.390 OA
ATOM     49  H   UNL d   1      40.943  22.509  28.698  0.00  0.00     0.210 HD
ENDBRANCH   4  48
TORSDOF 14
ENDMDL
MODEL 2
REMARK VINA RESULT:    -8.270      2.808      8.105
REMARK INTER + INTRA:          -3.262
REMARK INTER:                 -13.288
REMARK INTRA:                  10.026
REMARK UNBOUND:                 9.843
REMARK  14 active torsions:
REMARK  status: ('A' for Active; 'I' for Inactive)
REMARK    1  A    between atoms: C_15  and  O_1 
REMARK    2  A    between atoms: C_18  and  O_1 
REMARK    3  A    between atoms: C_16  and  O_4 
REMARK    4  A    between atoms: C_20  and  O_5 
REMARK    5  A    between atoms: O_5  and  C_27 
REMARK    6  A    between atoms: C_17  and  O_6 
REMARK    7  A    between atoms: C_19  and  O_7 
REMARK    8  A    between atoms: C_22  and  O_8 
REMARK    9  A    between atoms: C_23  and  O_9 
REMARK   10  A    between atoms: O_10  and  C_25 
REMARK   11  A    between atoms: O_12  and  C_31 
REMARK   12  A    between atoms: O_14  and  C_41 
REMARK   13  A    between atoms: C_21  and  C_25 
REMARK   14  A    between atoms: C_34  and  C_36 
ROOT
ATOM      1  O   UNL d   1      37.562  24.167  26.154  0.00  0.00    -0.348 OA
ATOM      2  C   UNL d   1      38.177  25.441  27.154  0.00  0.00     0.211 A 
ATOM      3  C   UNL d   1      38.060  26.088  26.401  0.00  0.00     0.183 A 
ATOM      4  C   UNL d   1      37.694  25.775  25.524  0.00  0.00     0.180 A 
ATOM      5  C   UNL d   1      37.928  24.480  27.031  0.00  0.00     0.298 A 
ATOM      6  C   UNL d   1      37.444  24.815  25.401  0.00  0.00     0.179 A 
ENDROOT
BRANCH   5   7
ATOM      7  O   UNL d   1      38.045  23.833  27.784  0.00  0.00    -0.318 OA
BRANCH   7   8
ATOM      8  C   UNL d   1      38.484  22.949  27.620  0.00  0.00     0.077 A 
ATOM      9  C   UNL d   1      37.908  22.086  27.529  0.00  0.00     0.075 A 
ATOM     10  C   UNL d   1      38.375  21.171  27.359  0.00  0.00     0.095 A 
ATOM     11  O   UNL d   1      37.816  20.347  27.273  0.00  0.00    -0.309 OA
ATOM     12  C   UNL d   1      39.371  21.110  27.280  0.00  0.00     0.081 A 
ATOM     13  C   UNL d   1      38.251  19.461  27.109  0.00  0.00     0.090 A 
ATOM     14  C   UNL d   1      39.246  19.401  27.031  0.00  0.00     0.094 A 
ATOM     15  C   UNL d   1      39.806  20.225  27.116  0.00  0.00     0.190 A 
ATOM     16  O   UNL d   1      40.801  20.164  27.038  0.00  0.00    -0.287 OA
ATOM     17  C   UNL d   1      39.967  21.960  27.367  0.00  0.00     0.085 A 
ATOM     18  C   UNL d   1      39.520  22.885  27.538  0.00  0.00     0.074 A 
BRANCH  13  19
ATOM     19  C   UNL d   1      37.691  18.637  27.024  0.00  0.00    -0.002 A 
ATOM     20  C   UNL d   1      37.537  18.052  27.820  0.00  0.00     0.017 A 
ATOM     21  C   UNL d   1      36.977  17.228  27.734  0.00  0.00     0.037 A 
ATOM     22  C   UNL d   1      36.572  16.988  26.852  0.00  0.00     0.065 A 
ATOM     23  C   UNL d   1      36.727  17.573  26.055  0.00  0.00     0.037 A 
ATOM     24  C   UNL d   1      37.286  18.398  26.141  0.00  0.00     0.017 A 
BRANCH  22  25
ATOM     25  O   UNL d   1      36.013  16.164  26.766  0.00  0.00    -0.361 OA
ATOM     26  H   UNL d   1      35.509  16.093  27.121  0.00  0.00     0.217 HD
ENDBRANCH  22  25
ENDBRANCH  13  19
BRANCH  17  27
ATOM     27  O   UNL d   1      40.961  21.887  27.287  0.00  0.00    -0.360 OA
ATOM     28  H   UNL d   1      41.217  21.364  27.072  0.00  0.00     0.217 HD
ENDBRANCH  17  27
ENDBRANCH   7   8
ENDBRANCH   5   7
BRANCH   2  29
ATOM     29  O   UNL d   1      38.543  25.754  28.030  0.00  0.00    -0.346 OA
BRANCH  29  30
ATOM     30  C   UNL d   1      37.925  26.106  28.733  0.00  0.00     0.292 A 
ATOM     31  O   UNL d   1      37.021  26.448  28.478  0.00  0.00    -0.351 OA
ATOM     32  C   UNL d   1      36.403  26.800  29.182  0.00  0.00     0.152 A 
ATOM     33  C   UNL d   1      36.689  26.809  30.140  0.00  0.00     0.178 A 
ATOM     34  C   UNL d   1      35.499  27.143  28.927  0.00  0.00     0.042 C 
ATOM     35  C   UNL d   1      37.594  26.466  30.394  0.00  0.00     0.183 A 
ATOM     36  C   UNL d   1      38.212  26.114  29.691  0.00  0.00     0.204 A 
BRANCH  33  37
ATOM     37  O   UNL d   1      36.072  27.160  30.843  0.00  0.00    -0.390 OA
ATOM     38  H   UNL d   1      35.807  27.717  30.773  0.00  0.00     0.210 HD
ENDBRANCH  33  37
BRANCH  35  39
ATOM     39  O   UNL d   1      37.880  26.475  31.353  0.00  0.00    -0.390 OA
ATOM     40  H   UNL d   1      38.066  27.004  31.616  0.00  0.00     0.210 HD
ENDBRANCH  35  39
BRANCH  36  41
ATOM     41  O   UNL d   1      39.116  25.772  29.946  0.00  0.00    -0.388 OA
ATOM     42  H   UNL d   1      39.209  25.532  30.510  0.00  0.00     0.210 HD
ENDBRANCH  36  41
ENDBRANCH  29  30
ENDBRANCH   2  29
BRANCH   6  43
ATOM     43  C   UNL d   1      37.078  24.501  24.525  0.00  0.00     0.198 C 
BRANCH  43  44
ATOM     44  O   UNL d   1      37.450  23.680  24.093  0.00  0.00    -0.398 OA
ATOM     45  H   UNL d   1      37.870  23.731  23.640  0.00  0.00     0.209 HD
ENDBRANCH  43  44
ENDBRANCH   6  43
BRANCH   3  46
ATOM     46  O   UNL d   1      38.309  27.049  26.524  0.00  0.00    -0.390 OA
ATOM     47  H   UNL d   1      38.808  27.279  26.237  0.00  0.00     0.210 HD
ENDBRANCH   3  46
BRANCH   4  48
ATOM     48  O   UNL d   1      37.577  26.423  24.771  0.00  0.00    -0.390 OA
ATOM     49  H   UNL d   1      37.140  26.324  24.343  0.00  0.00     0.210 HD
ENDBRANCH   4  48
TORSDOF 14
ENDMDL
MODEL 3
REMARK VINA RESULT:    -8.195      2.296      4.100
REMARK INTER + INTRA:          -3.144
REMARK INTER:                 -13.129
REMARK INTRA:                   9.986
REMARK UNBOUND:                 9.843
REMARK  14 active torsions:
REMARK  status: ('A' for Active; 'I' for Inactive)
REMARK    1  A    between atoms: C_15  and  O_1 
REMARK    2  A    between atoms: C_18  and  O_1 
REMARK    3  A    between atoms: C_16  and  O_4 
REMARK    4  A    between atoms: C_20  and  O_5 
REMARK    5  A    between atoms: O_5  and  C_27 
REMARK    6  A    between atoms: C_17  and  O_6 
REMARK    7  A    between atoms: C_19  and  O_7 
REMARK    8  A    between atoms: C_22  and  O_8 
REMARK    9  A    between atoms: C_23  and  O_9 
REMARK   10  A    between atoms: O_10  and  C_25 
REMARK   11  A    between atoms: O_12  and  C_31 
REMARK   12  A    between atoms: O_14  and  C_41 
REMARK   13  A    between atoms: C_21  and  C_25 
REMARK   14  A    between atoms: C_34  and  C_36 
ROOT
ATOM      1  O   UNL d   1      38.684  24.762  27.233  0.00  0.00    -0.348 OA
ATOM      2  C   UNL d   1      38.613  25.638  28.725  0.00  0.00     0.211 A 
ATOM      3  C   UNL d   1      39.412  25.137  29.057  0.00  0.00     0.183 A 
ATOM      4  C   UNL d   1      39.847  24.448  28.477  0.00  0.00     0.180 A 
ATOM      5  C   UNL d   1      38.249  25.450  27.813  0.00  0.00     0.298 A 
ATOM      6  C   UNL d   1      39.483  24.260  27.565  0.00  0.00     0.179 A 
ENDROOT
BRANCH   5   7
ATOM      7  O   UNL d   1      37.450  25.952  27.481  0.00  0.00    -0.318 OA
BRANCH   7   8
ATOM      8  C   UNL d   1      37.451  26.341  26.559  0.00  0.00     0.077 A 
ATOM      9  C   UNL d   1      37.937  27.243  26.371  0.00  0.00     0.075 A 
ATOM     10  C   UNL d   1      37.932  27.639  25.408  0.00  0.00     0.095 A 
ATOM     11  O   UNL d   1      38.400  28.505  25.235  0.00  0.00    -0.309 OA
ATOM     12  C   UNL d   1      37.467  27.165  24.660  0.00  0.00     0.081 A 
ATOM     13  C   UNL d   1      38.404  28.898  24.316  0.00  0.00     0.090 A 
ATOM     14  C   UNL d   1      37.938  28.423  23.569  0.00  0.00     0.094 A 
ATOM     15  C   UNL d   1      37.470  27.557  23.741  0.00  0.00     0.190 A 
ATOM     16  O   UNL d   1      37.005  27.083  22.994  0.00  0.00    -0.287 OA
ATOM     17  C   UNL d   1      36.974  26.261  24.825  0.00  0.00     0.085 A 
ATOM     18  C   UNL d   1      36.967  25.847  25.780  0.00  0.00     0.074 A 
BRANCH  13  19
ATOM     19  C   UNL d   1      38.872  29.764  24.143  0.00  0.00    -0.002 A 
ATOM     20  C   UNL d   1      38.743  30.536  24.765  0.00  0.00     0.017 A 
ATOM     21  C   UNL d   1      39.211  31.402  24.592  0.00  0.00     0.037 A 
ATOM     22  C   UNL d   1      39.810  31.497  23.796  0.00  0.00     0.065 A 
ATOM     23  C   UNL d   1      39.939  30.725  23.174  0.00  0.00     0.037 A 
ATOM     24  C   UNL d   1      39.471  29.858  23.347  0.00  0.00     0.017 A 
BRANCH  22  25
ATOM     25  O   UNL d   1      40.278  32.363  23.623  0.00  0.00    -0.361 OA
ATOM     26  H   UNL d   1      40.893  32.372  23.543  0.00  0.00     0.217 HD
ENDBRANCH  22  25
ENDBRANCH  13  19
BRANCH  17  27
ATOM     27  O   UNL d   1      36.512  25.796  24.070  0.00  0.00    -0.360 OA
ATOM     28  H   UNL d   1      36.777  25.304  23.801  0.00  0.00     0.217 HD
ENDBRANCH  17  27
ENDBRANCH   7   8
ENDBRANCH   5   7
BRANCH   2  29
ATOM     29  O   UNL d   1      38.179  26.327  29.305  0.00  0.00    -0.346 OA
BRANCH  29  30
ATOM     30  C   UNL d   1      37.516  26.049  30.000  0.00  0.00     0.292 A 
ATOM     31  O   UNL d   1      37.089  25.146  29.951  0.00  0.00    -0.351 OA
ATOM     32  C   UNL d   1      36.426  24.868  30.647  0.00  0.00     0.152 A 
ATOM     33  C   UNL d   1      36.191  25.493  31.391  0.00  0.00     0.178 A 
ATOM     34  C   UNL d   1      35.999  23.965  30.598  0.00  0.00     0.042 C 
ATOM     35  C   UNL d   1      36.618  26.395  31.441  0.00  0.00     0.183 A 
ATOM     36  C   UNL d   1      37.281  26.674  30.745  0.00  0.00     0.204 A 
BRANCH  33  37
ATOM     37  O   UNL d   1      35.529  25.215  32.087  0.00  0.00    -0.390 OA
ATOM     38  H   UNL d   1      35.724  25.031  32.646  0.00  0.00     0.210 HD
ENDBRANCH  33  37
BRANCH  35  39
ATOM     39  O   UNL d   1      36.383  27.020  32.185  0.00  0.00    -0.390 OA
ATOM     40  H   UNL d   1      35.893  27.395  32.132  0.00  0.00     0.210 HD
ENDBRANCH  35  39
BRANCH  36  41
ATOM     41  O   UNL d   1      37.708  27.576  30.794  0.00  0.00    -0.388 OA
ATOM     42  H   UNL d   1      38.090  27.763  30.343  0.00  0.00     0.210 HD
ENDBRANCH  36  41
ENDBRANCH  29  30
ENDBRANCH   2  29
BRANCH   6  43
ATOM     43  C   UNL d   1      39.918  23.572  26.985  0.00  0.00     0.198 C 
BRANCH  43  44
ATOM     44  O   UNL d   1      39.922  23.685  25.991  0.00  0.00    -0.398 OA
ATOM     45  H   UNL d   1      40.459  23.688  25.681  0.00  0.00     0.209 HD
ENDBRANCH  43  44
ENDBRANCH   6  43
BRANCH   3  46
ATOM     46  O   UNL d   1      39.777  25.324  29.969  0.00  0.00    -0.390 OA
ATOM     47  H   UNL d   1      40.349  25.138  30.119  0.00  0.00     0.210 HD
ENDBRANCH   3  46
BRANCH   4  48
ATOM     48  O   UNL d   1      40.646  23.947  28.809  0.00  0.00    -0.390 OA
ATOM     49  H   UNL d   1      40.989  24.180  29.270  0.00  0.00     0.210 HD
ENDBRANCH   4  48
TORSDOF 14
ENDMDL
MODEL 4
REMARK VINA RESULT:    -8.089      1.345      2.088
REMARK INTER + INTRA:          -2.975
REMARK INTER:                 -13.137
REMARK INTRA:                  10.162
REMARK UNBOUND:                 9.843
REMARK  14 active torsions:
REMARK  status: ('A' for Active; 'I' for Inactive)
REMARK    1  A    between atoms: C_15  and  O_1 
REMARK    2  A    between atoms: C_18  and  O_1 
REMARK    3  A    between atoms: C_16  and  O_4 
REMARK    4  A    between atoms: C_20  and  O_5 
REMARK    5  A    between atoms: O_5  and  C_27 
REMARK    6  A    between atoms: C_17  and  O_6 
REMARK    7  A    between atoms: C_19  and  O_7 
REMARK    8  A    between atoms: C_22  and  O_8 
REMARK    9  A    between atoms: C_23  and  O_9 
REMARK   10  A    between atoms: O_10  and  C_25 
REMARK   11  A    between atoms: O_12  and  C_31 
REMARK   12  A    between atoms: O_14  and  C_41 
REMARK   13  A    between atoms: C_21  and  C_25 
REMARK   14  A    between atoms: C_34  and  C_36 
ROOT
ATOM      1  O   UNL d   1      37.723  26.358  28.861  0.00  0.00    -0.348 OA
ATOM      2  C   UNL d   1      38.687  25.259  27.932  0.00  0.00     0.211 A 
ATOM      3  C   UNL d   1      39.256  25.080  28.735  0.00  0.00     0.183 A 
ATOM      4  C   UNL d   1      39.059  25.540  29.600  0.00  0.00     0.180 A 
ATOM      5  C   UNL d   1      37.920  25.898  27.995  0.00  0.00     0.298 A 
ATOM      6  C   UNL d   1      38.292  26.179  29.663  0.00  0.00     0.179 A 
ENDROOT
BRANCH   5   7
ATOM      7  O   UNL d   1      37.351  26.076  27.193  0.00  0.00    -0.318 OA
BRANCH   7   8
ATOM      8  C   UNL d   1      37.089  27.014  26.965  0.00  0.00     0.077 A 
ATOM      9  C   UNL d   1      37.739  27.625  26.428  0.00  0.00     0.075 A 
ATOM     10  C   UNL d   1      37.456  28.600  26.196  0.00  0.00     0.095 A 
ATOM     11  O   UNL d   1      38.086  29.181  25.680  0.00  0.00    -0.309 OA
ATOM     12  C   UNL d   1      36.566  28.958  26.481  0.00  0.00     0.081 A 
ATOM     13  C   UNL d   1      37.827  30.119  25.450  0.00  0.00     0.090 A 
ATOM     14  C   UNL d   1      36.937  30.476  25.736  0.00  0.00     0.094 A 
ATOM     15  C   UNL d   1      36.307  29.896  26.251  0.00  0.00     0.190 A 
ATOM     16  O   UNL d   1      35.418  30.253  26.537  0.00  0.00    -0.287 OA
ATOM     17  C   UNL d   1      35.899  28.364  27.019  0.00  0.00     0.085 A 
ATOM     18  C   UNL d   1      36.162  27.387  27.262  0.00  0.00     0.074 A 
BRANCH  13  19
ATOM     19  C   UNL d   1      38.457  30.700  24.935  0.00  0.00    -0.002 A 
ATOM     20  C   UNL d   1      39.068  30.295  24.255  0.00  0.00     0.017 A 
ATOM     21  C   UNL d   1      39.697  30.877  23.740  0.00  0.00     0.037 A 
ATOM     22  C   UNL d   1      39.716  31.863  23.904  0.00  0.00     0.065 A 
ATOM     23  C   UNL d   1      39.105  32.268  24.584  0.00  0.00     0.037 A 
ATOM     24  C   UNL d   1      38.475  31.686  25.100  0.00  0.00     0.017 A 
BRANCH  22  25
ATOM     25  O   UNL d   1      40.346  32.444  23.389  0.00  0.00    -0.361 OA
ATOM     26  H   UNL d   1      40.958  32.346  23.425  0.00  0.00     0.217 HD
ENDBRANCH  22  25
ENDBRANCH  13  19
BRANCH  17  27
ATOM     27  O   UNL d   1      35.013  28.732  27.299  0.00  0.00    -0.360 OA
ATOM     28  H   UNL d   1      34.491  28.436  27.142  0.00  0.00     0.217 HD
ENDBRANCH  17  27
ENDBRANCH   7   8
ENDBRANCH   5   7
BRANCH   2  29
ATOM     29  O   UNL d   1      38.885  24.798  27.067  0.00  0.00    -0.346 OA
BRANCH  29  30
ATOM     30  C   UNL d   1      38.576  23.859  26.918  0.00  0.00     0.292 A 
ATOM     31  O   UNL d   1      37.812  23.494  27.449  0.00  0.00    -0.351 OA
ATOM     32  C   UNL d   1      37.503  22.554  27.301  0.00  0.00     0.152 A 
ATOM     33  C   UNL d   1      37.960  21.980  26.622  0.00  0.00     0.178 A 
ATOM     34  C   UNL d   1      36.739  22.189  27.832  0.00  0.00     0.042 C 
ATOM     35  C   UNL d   1      38.724  22.345  26.091  0.00  0.00     0.183 A 
ATOM     36  C   UNL d   1      39.033  23.284  26.239  0.00  0.00     0.204 A 
BRANCH  33  37
ATOM     37  O   UNL d   1      37.651  21.040  26.473  0.00  0.00    -0.390 OA
ATOM     38  H   UNL d   1      38.010  20.565  26.648  0.00  0.00     0.210 HD
ENDBRANCH  33  37
BRANCH  35  39
ATOM     39  O   UNL d   1      39.181  21.770  25.411  0.00  0.00    -0.390 OA
ATOM     40  H   UNL d   1      38.903  21.650  24.870  0.00  0.00     0.210 HD
ENDBRANCH  35  39
BRANCH  36  41
ATOM     41  O   UNL d   1      39.797  23.649  25.708  0.00  0.00    -0.388 OA
ATOM     42  H   UNL d   1      39.689  23.965  25.186  0.00  0.00     0.210 HD
ENDBRANCH  36  41
ENDBRANCH  29  30
ENDBRANCH   2  29
BRANCH   6  43
ATOM     43  C   UNL d   1      38.095  26.639  30.529  0.00  0.00     0.198 C 
BRANCH  43  44
ATOM     44  O   UNL d   1      37.321  27.269  30.595  0.00  0.00    -0.398 OA
ATOM     45  H   UNL d   1      37.191  27.652  30.125  0.00  0.00     0.209 HD
ENDBRANCH  43  44
ENDBRANCH   6  43
BRANCH   3  46
ATOM     46  O   UNL d   1      40.023  24.441  28.672  0.00  0.00    -0.390 OA
ATOM     47  H   UNL d   1      40.061  24.049  28.193  0.00  0.00     0.210 HD
ENDBRANCH   3  46
BRANCH   4  48
ATOM     48  O   UNL d   1      39.628  25.362  30.403  0.00  0.00    -0.390 OA
ATOM     49  H   UNL d   1      40.207  25.581  30.427  0.00  0.00     0.210 HD
ENDBRANCH   4  48
TORSDOF 14
ENDMDL
MODEL 5
REMARK VINA RESULT:    -8.081      5.983     11.861
REMARK INTER + INTRA:          -2.963
REMARK INTER:                 -12.914
REMARK INTRA:                   9.951
REMARK UNBOUND:                 9.843
REMARK  14 active torsions:
REMARK  status: ('A' for Active; 'I' for Inactive)
REMARK    1  A    between atoms: C_15  and  O_1 
REMARK    2  A    between atoms: C_18  and  O_1 
REMARK    3  A    between atoms: C_16  and  O_4 
REMARK    4  A    between atoms: C_20  and  O_5 
REMARK    5  A    between atoms: O_5  and  C_27 
REMARK    6  A    between atoms: C_17  and  O_6 
REMARK    7  A    between atoms: C_19  and  O_7 
REMARK    8  A    between atoms: C_22  and  O_8 
REMARK    9  A    between atoms: C_23  and  O_9 
REMARK   10  A    between atoms: O_10  and  C_25 
REMARK   11  A    between atoms: O_12  and  C_31 
REMARK   12  A    between atoms: O_14  and  C_41 
REMARK   13  A    between atoms: C_21  and  C_25 
REMARK   14  A    between atoms: C_34  and  C_36 
ROOT
ATOM      1  O   UNL d   1      35.821  17.026  27.060  0.00  0.00    -0.348 OA
ATOM      2  C   UNL d   1      37.312  17.846  26.734  0.00  0.00     0.211 A 
ATOM      3  C   UNL d   1      37.060  17.919  25.769  0.00  0.00     0.183 A 
ATOM      4  C   UNL d   1      36.189  17.546  25.450  0.00  0.00     0.180 A 
ATOM      5  C   UNL d   1      36.693  17.399  27.379  0.00  0.00     0.298 A 
ATOM      6  C   UNL d   1      35.569  17.100  26.095  0.00  0.00     0.179 A 
ENDROOT
BRANCH   5   7
ATOM      7  O   UNL d   1      36.945  17.325  28.344  0.00  0.00    -0.318 OA
BRANCH   7   8
ATOM      8  C   UNL d   1      36.291  16.955  29.005  0.00  0.00     0.077 A 
ATOM      9  C   UNL d   1      36.258  15.930  29.193  0.00  0.00     0.075 A 
ATOM     10  C   UNL d   1      35.574  15.556  29.882  0.00  0.00     0.095 A 
ATOM     11  O   UNL d   1      35.548  14.572  30.057  0.00  0.00    -0.309 OA
ATOM     12  C   UNL d   1      34.947  16.166  30.368  0.00  0.00     0.081 A 
ATOM     13  C   UNL d   1      34.896  14.198  30.717  0.00  0.00     0.090 A 
ATOM     14  C   UNL d   1      34.270  14.809  31.202  0.00  0.00     0.094 A 
ATOM     15  C   UNL d   1      34.295  15.793  31.027  0.00  0.00     0.190 A 
ATOM     16  O   UNL d   1      33.669  16.403  31.512  0.00  0.00    -0.287 OA
ATOM     17  C   UNL d   1      34.963  17.194  30.196  0.00  0.00     0.085 A 
ATOM     18  C   UNL d   1      35.639  17.590  29.510  0.00  0.00     0.074 A 
BRANCH  13  19
ATOM     19  C   UNL d   1      34.870  13.213  30.892  0.00  0.00    -0.002 A 
ATOM     20  C   UNL d   1      35.594  12.782  31.431  0.00  0.00     0.017 A 
ATOM     21  C   UNL d   1      35.567  11.798  31.605  0.00  0.00     0.037 A 
ATOM     22  C   UNL d   1      34.817  11.245  31.242  0.00  0.00     0.065 A 
ATOM     23  C   UNL d   1      34.093  11.677  30.704  0.00  0.00     0.037 A 
ATOM     24  C   UNL d   1      34.119  12.661  30.529  0.00  0.00     0.017 A 
BRANCH  22  25
ATOM     25  O   UNL d   1      34.791  10.261  31.417  0.00  0.00    -0.361 OA
ATOM     26  H   UNL d   1      34.528  10.045  31.935  0.00  0.00     0.217 HD
ENDBRANCH  22  25
ENDBRANCH  13  19
BRANCH  17  27
ATOM     27  O   UNL d   1      34.332  17.795  30.687  0.00  0.00    -0.360 OA
ATOM     28  H   UNL d   1      33.722  17.683  30.671  0.00  0.00     0.217 HD
ENDBRANCH  17  27
ENDBRANCH   7   8
ENDBRANCH   5   7
BRANCH   2  29
ATOM     29  O   UNL d   1      38.183  18.219  27.053  0.00  0.00    -0.346 OA
BRANCH  29  30
ATOM     30  C   UNL d   1      38.289  19.205  27.177  0.00  0.00     0.292 A 
ATOM     31  O   UNL d   1      37.499  19.766  27.423  0.00  0.00    -0.351 OA
ATOM     32  C   UNL d   1      37.605  20.753  27.546  0.00  0.00     0.152 A 
ATOM     33  C   UNL d   1      38.501  21.178  27.424  0.00  0.00     0.178 A 
ATOM     34  C   UNL d   1      36.814  21.314  27.792  0.00  0.00     0.042 C 
ATOM     35  C   UNL d   1      39.292  20.617  27.178  0.00  0.00     0.183 A 
ATOM     36  C   UNL d   1      39.186  19.631  27.054  0.00  0.00     0.204 A 
BRANCH  33  37
ATOM     37  O   UNL d   1      38.608  22.165  27.548  0.00  0.00    -0.390 OA
ATOM     38  H   UNL d   1      38.570  22.412  28.115  0.00  0.00     0.210 HD
ENDBRANCH  33  37
BRANCH  35  39
ATOM     39  O   UNL d   1      40.188  21.043  27.056  0.00  0.00    -0.390 OA
ATOM     40  H   UNL d   1      40.636  20.741  26.752  0.00  0.00     0.210 HD
ENDBRANCH  35  39
BRANCH  36  41
ATOM     41  O   UNL d   1      39.976  19.070  26.808  0.00  0.00    -0.388 OA
ATOM     42  H   UNL d   1      39.893  18.520  26.535  0.00  0.00     0.210 HD
ENDBRANCH  36  41
ENDBRANCH  29  30
ENDBRANCH   2  29
BRANCH   6  43
ATOM     43  C   UNL d   1      34.698  16.727  25.776  0.00  0.00     0.198 C 
BRANCH  43  44
ATOM     44  O   UNL d   1      33.939  16.610  26.417  0.00  0.00    -0.398 OA
ATOM     45  H   UNL d   1      33.384  16.428  26.210  0.00  0.00     0.209 HD
ENDBRANCH  43  44
ENDBRANCH   6  43
BRANCH   3  46
ATOM     46  O   UNL d   1      37.679  18.366  25.123  0.00  0.00    -0.390 OA
ATOM     47  H   UNL d   1      38.286  18.394  25.245  0.00  0.00     0.210 HD
ENDBRANCH   3  46
BRANCH   4  48
ATOM     48  O   UNL d   1      35.937  17.620  24.485  0.00  0.00    -0.390 OA
ATOM     49  H   UNL d   1      36.175  18.074  24.136  0.00  0.00     0.210 HD
ENDBRANCH   4  48
TORSDOF 14
ENDMDL
