MODEL 1
REMARK VINA RESULT:    -8.444      0.000      0.000
REMARK INTER + INTRA:          -8.427
REMARK INTER:                  -9.856
REMARK INTRA:                   1.429
REMARK UNBOUND:                 1.004
REMARK  3 active torsions:
REMARK  status: ('A' for Active; 'I' for Inactive)
REMARK    1  A    between atoms: O_2  and  C_10 
REMARK    2  A    between atoms: O_4  and  C_13 
REMARK    3  A    between atoms: C_7  and  C_9 
ROOT
ATOM      1  O   UNL d   1      21.789  45.514  36.132  0.00  0.00    -0.309 OA
ATOM      2  O   UNL d   1      21.978  42.544  36.513  0.00  0.00    -0.287 OA
ATOM      3  C   UNL d   1      22.291  44.152  37.077  0.00  0.00     0.081 A 
ATOM      4  C   UNL d   1      22.228  45.142  36.950  0.00  0.00     0.095 A 
ATOM      5  C   UNL d   1      21.412  44.896  35.441  0.00  0.00     0.090 A 
ATOM      6  C   UNL d   1      21.915  43.534  36.386  0.00  0.00     0.190 A 
ATOM      7  C   UNL d   1      22.746  43.750  37.923  0.00  0.00     0.085 A 
ATOM      8  C   UNL d   1      21.476  43.906  35.569  0.00  0.00     0.094 A 
ATOM      9  C   UNL d   1      22.615  45.798  37.660  0.00  0.00     0.075 A 
ATOM     10  C   UNL d   1      23.074  45.418  38.514  0.00  0.00     0.071 A 
ATOM     11  C   UNL d   1      23.140  44.387  38.647  0.00  0.00     0.074 A 
ENDROOT
BRANCH   5  12
ATOM     12  C   UNL d   1      20.973  45.268  34.624  0.00  0.00    -0.002 A 
ATOM     13  C   UNL d   1      21.044  46.244  34.418  0.00  0.00     0.014 A 
ATOM     14  C   UNL d   1      20.605  46.616  33.600  0.00  0.00     0.001 A 
ATOM     15  C   UNL d   1      20.094  46.012  32.989  0.00  0.00     0.000 A 
ATOM     16  C   UNL d   1      20.023  45.036  33.194  0.00  0.00     0.001 A 
ATOM     17  C   UNL d   1      20.462  44.664  34.012  0.00  0.00     0.014 A 
ENDBRANCH   5  12
BRANCH   7  18
ATOM     18  O   UNL d   1      22.803  42.759  38.040  0.00  0.00    -0.360 OA
ATOM     19  H   UNL d   1      22.942  42.520  38.594  0.00  0.00     0.217 HD
ENDBRANCH   7  18
BRANCH  10  20
ATOM     20  O   UNL d   1      23.449  46.039  39.202  0.00  0.00    -0.361 OA
ATOM     21  H   UNL d   1      23.074  46.299  39.622  0.00  0.00     0.217 HD
ENDBRANCH  10  20
TORSDOF 3
ENDMDL
MODEL 2
REMARK VINA RESULT:    -8.134      0.927      2.294
REMARK INTER + INTRA:          -8.080
REMARK INTER:                  -9.146
REMARK INTRA:                   1.066
REMARK UNBOUND:                 1.004
REMARK  3 active torsions:
REMARK  status: ('A' for Active; 'I' for Inactive)
REMARK    1  A    between atoms: O_2  and  C_10 
REMARK    2  A    between atoms: O_4  and  C_13 
REMARK    3  A    between atoms: C_7  and  C_9 
ROOT
ATOM      1  O   UNL d   1      21.998  45.059  35.923  0.00  0.00    -0.309 OA
ATOM      2  O   UNL d   1      22.916  47.248  37.758  0.00  0.00    -0.287 OA
ATOM      3  C   UNL d   1      22.654  45.564  37.445  0.00  0.00     0.081 A 
ATOM      4  C   UNL d   1      22.347  44.835  36.833  0.00  0.00     0.095 A 
ATOM      5  C   UNL d   1      21.955  46.012  35.625  0.00  0.00     0.090 A 
ATOM      6  C   UNL d   1      22.610  46.518  37.146  0.00  0.00     0.190 A 
ATOM      7  C   UNL d   1      23.020  45.346  38.395  0.00  0.00     0.085 A 
ATOM      8  C   UNL d   1      22.261  46.742  36.237  0.00  0.00     0.094 A 
ATOM      9  C   UNL d   1      22.386  43.837  37.129  0.00  0.00     0.075 A 
ATOM     10  C   UNL d   1      22.749  43.596  38.076  0.00  0.00     0.071 A 
ATOM     11  C   UNL d   1      23.068  44.355  38.712  0.00  0.00     0.074 A 
ENDROOT
BRANCH   5  12
ATOM     12  C   UNL d   1      21.605  46.236  34.715  0.00  0.00    -0.002 A 
ATOM     13  C   UNL d   1      20.646  46.064  34.492  0.00  0.00     0.014 A 
ATOM     14  C   UNL d   1      20.296  46.288  33.582  0.00  0.00     0.001 A 
ATOM     15  C   UNL d   1      20.906  46.684  32.896  0.00  0.00     0.000 A 
ATOM     16  C   UNL d   1      21.865  46.857  33.119  0.00  0.00     0.001 A 
ATOM     17  C   UNL d   1      22.215  46.633  34.029  0.00  0.00     0.014 A 
ENDBRANCH   5  12
BRANCH   7  18
ATOM     18  O   UNL d   1      23.323  46.084  38.998  0.00  0.00    -0.360 OA
ATOM     19  H   UNL d   1      23.135  46.099  39.588  0.00  0.00     0.217 HD
ENDBRANCH   7  18
BRANCH  10  20
ATOM     20  O   UNL d   1      22.791  42.641  38.370  0.00  0.00    -0.361 OA
ATOM     21  H   UNL d   1      23.338  42.381  38.502  0.00  0.00     0.217 HD
ENDBRANCH  10  20
TORSDOF 3
ENDMDL
MODEL 3
REMARK VINA RESULT:    -8.108      1.577      4.146
REMARK INTER + INTRA:          -8.052
REMARK INTER:                  -9.054
REMARK INTRA:                   1.002
REMARK UNBOUND:                 1.004
REMARK  3 active torsions:
REMARK  status: ('A' for Active; 'I' for Inactive)
REMARK    1  A    between atoms: O_2  and  C_10 
REMARK    2  A    between atoms: O_4  and  C_13 
REMARK    3  A    between atoms: C_7  and  C_9 
ROOT
ATOM      1  O   UNL d   1      22.102  46.046  36.916  0.00  0.00    -0.309 OA
ATOM      2  O   UNL d   1      23.041  43.468  38.130  0.00  0.00    -0.287 OA
ATOM      3  C   UNL d   1      22.217  44.318  36.866  0.00  0.00     0.081 A 
ATOM      4  C   UNL d   1      21.904  45.178  36.461  0.00  0.00     0.095 A 
ATOM      5  C   UNL d   1      22.613  46.055  37.776  0.00  0.00     0.090 A 
ATOM      6  C   UNL d   1      22.728  44.327  37.725  0.00  0.00     0.190 A 
ATOM      7  C   UNL d   1      22.019  43.407  36.403  0.00  0.00     0.085 A 
ATOM      8  C   UNL d   1      22.926  45.195  38.181  0.00  0.00     0.094 A 
ATOM      9  C   UNL d   1      21.371  45.185  35.566  0.00  0.00     0.075 A 
ATOM     10  C   UNL d   1      21.162  44.284  35.086  0.00  0.00     0.071 A 
ATOM     11  C   UNL d   1      21.488  43.390  35.507  0.00  0.00     0.074 A 
ENDROOT
BRANCH   5  12
ATOM     12  C   UNL d   1      22.810  46.923  38.231  0.00  0.00    -0.002 A 
ATOM     13  C   UNL d   1      22.212  47.252  38.962  0.00  0.00     0.014 A 
ATOM     14  C   UNL d   1      22.410  48.120  39.417  0.00  0.00     0.001 A 
ATOM     15  C   UNL d   1      23.206  48.659  39.142  0.00  0.00     0.000 A 
ATOM     16  C   UNL d   1      23.804  48.330  38.411  0.00  0.00     0.001 A 
ATOM     17  C   UNL d   1      23.607  47.462  37.956  0.00  0.00     0.014 A 
ENDBRANCH   5  12
BRANCH   7  18
ATOM     18  O   UNL d   1      22.337  42.554  36.817  0.00  0.00    -0.360 OA
ATOM     19  H   UNL d   1      22.104  42.368  37.360  0.00  0.00     0.217 HD
ENDBRANCH   7  18
BRANCH  10  20
ATOM     20  O   UNL d   1      20.651  44.280  34.226  0.00  0.00    -0.361 OA
ATOM     21  H   UNL d   1      20.944  44.163  33.693  0.00  0.00     0.217 HD
ENDBRANCH  10  20
TORSDOF 3
ENDMDL
MODEL 4
REMARK VINA RESULT:    -7.819      1.681      4.502
REMARK INTER + INTRA:          -7.729
REMARK INTER:                  -8.927
REMARK INTRA:                   1.199
REMARK UNBOUND:                 1.004
REMARK  3 active torsions:
REMARK  status: ('A' for Active; 'I' for Inactive)
REMARK    1  A    between atoms: O_2  and  C_10 
REMARK    2  A    between atoms: O_4  and  C_13 
REMARK    3  A    between atoms: C_7  and  C_9 
ROOT
ATOM      1  O   UNL d   1      21.249  43.821  36.536  0.00  0.00    -0.309 OA
ATOM      2  O   UNL d   1      21.025  45.338  33.958  0.00  0.00    -0.287 OA
ATOM      3  C   UNL d   1      20.633  43.954  34.923  0.00  0.00     0.081 A 
ATOM      4  C   UNL d   1      20.708  43.448  35.782  0.00  0.00     0.095 A 
ATOM      5  C   UNL d   1      21.715  44.699  36.431  0.00  0.00     0.090 A 
ATOM      6  C   UNL d   1      21.099  44.832  34.817  0.00  0.00     0.190 A 
ATOM      7  C   UNL d   1      20.073  43.578  34.129  0.00  0.00     0.085 A 
ATOM      8  C   UNL d   1      21.640  45.205  35.571  0.00  0.00     0.094 A 
ATOM      9  C   UNL d   1      20.228  42.532  35.907  0.00  0.00     0.075 A 
ATOM     10  C   UNL d   1      19.662  42.138  35.127  0.00  0.00     0.071 A 
ATOM     11  C   UNL d   1      19.585  42.664  34.232  0.00  0.00     0.074 A 
ENDROOT
BRANCH   5  12
ATOM     12  C   UNL d   1      22.256  45.072  37.185  0.00  0.00    -0.002 A 
ATOM     13  C   UNL d   1      22.134  46.024  37.465  0.00  0.00     0.014 A 
ATOM     14  C   UNL d   1      22.675  46.397  38.218  0.00  0.00     0.001 A 
ATOM     15  C   UNL d   1      23.338  45.817  38.692  0.00  0.00     0.000 A 
ATOM     16  C   UNL d   1      23.460  44.865  38.413  0.00  0.00     0.001 A 
ATOM     17  C   UNL d   1      22.919  44.492  37.659  0.00  0.00     0.014 A 
ENDBRANCH   5  12
BRANCH   7  18
ATOM     18  O   UNL d   1      20.005  44.093  33.274  0.00  0.00    -0.360 OA
ATOM     19  H   UNL d   1      20.283  43.881  32.762  0.00  0.00     0.217 HD
ENDBRANCH   7  18
BRANCH  10  20
ATOM     20  O   UNL d   1      19.197  41.259  35.236  0.00  0.00    -0.361 OA
ATOM     21  H   UNL d   1      19.204  40.846  34.774  0.00  0.00     0.217 HD
ENDBRANCH  10  20
TORSDOF 3
ENDMDL
MODEL 5
REMARK VINA RESULT:    -7.504     21.475     21.895
REMARK INTER + INTRA:          -7.378
REMARK INTER:                  -8.389
REMARK INTRA:                   1.012
REMARK UNBOUND:                 1.004
REMARK  3 active torsions:
REMARK  status: ('A' for Active; 'I' for Inactive)
REMARK    1  A    between atoms: O_2  and  C_10 
REMARK    2  A    between atoms: O_4  and  C_13 
REMARK    3  A    between atoms: C_7  and  C_9 
ROOT
ATOM      1  O   UNL d   1      39.363  40.205  25.616  0.00  0.00    -0.309 OA
ATOM      2  O   UNL d   1      42.329  39.905  25.279  0.00  0.00    -0.287 OA
ATOM      3  C   UNL d   1      40.729  39.263  25.119  0.00  0.00     0.081 A 
ATOM      4  C   UNL d   1      39.740  39.363  25.231  0.00  0.00     0.095 A 
ATOM      5  C   UNL d   1      39.975  40.947  25.889  0.00  0.00     0.090 A 
ATOM      6  C   UNL d   1      41.341  40.005  25.391  0.00  0.00     0.190 A 
ATOM      7  C   UNL d   1      41.135  38.391  24.719  0.00  0.00     0.085 A 
ATOM      8  C   UNL d   1      40.964  40.847  25.777  0.00  0.00     0.094 A 
ATOM      9  C   UNL d   1      39.090  38.598  24.951  0.00  0.00     0.075 A 
ATOM     10  C   UNL d   1      39.475  37.718  24.549  0.00  0.00     0.071 A 
ATOM     11  C   UNL d   1      40.504  37.614  24.432  0.00  0.00     0.074 A 
ENDROOT
BRANCH   5  12
ATOM     12  C   UNL d   1      39.598  41.790  26.274  0.00  0.00    -0.002 A 
ATOM     13  C   UNL d   1      39.209  42.485  25.670  0.00  0.00     0.014 A 
ATOM     14  C   UNL d   1      38.832  43.327  26.056  0.00  0.00     0.001 A 
ATOM     15  C   UNL d   1      38.845  43.474  27.045  0.00  0.00     0.000 A 
ATOM     16  C   UNL d   1      39.234  42.779  27.649  0.00  0.00     0.001 A 
ATOM     17  C   UNL d   1      39.611  41.937  27.263  0.00  0.00     0.014 A 
ENDBRANCH   5  12
BRANCH   7  18
ATOM     18  O   UNL d   1      42.126  38.302  24.611  0.00  0.00    -0.360 OA
ATOM     19  H   UNL d   1      42.414  37.791  24.808  0.00  0.00     0.217 HD
ENDBRANCH   7  18
BRANCH  10  20
ATOM     20  O   UNL d   1      38.860  36.977  24.278  0.00  0.00    -0.361 OA
ATOM     21  H   UNL d   1      39.022  36.388  24.379  0.00  0.00     0.217 HD
ENDBRANCH  10  20
TORSDOF 3
ENDMDL
