MODEL 1
REMARK VINA RESULT:    -6.176      0.000      0.000
REMARK INTER + INTRA:          -6.836
REMARK INTER:                  -7.782
REMARK INTRA:                   0.946
REMARK UNBOUND:                 0.966
REMARK  6 active torsions:
REMARK  status: ('A' for Active; 'I' for Inactive)
REMARK    1  A    between atoms: O_1  and  C_8 
REMARK    2  A    between atoms: O_2  and  C_9 
REMARK    3  A    between atoms: O_3  and  C_13 
REMARK    4  A    between atoms: C_5  and  C_11 
REMARK    5  A    between atoms: C_11  and  C_12 
REMARK    6  A    between atoms: C_12  and  C_13 
ROOT
ATOM      1  C   UNL d   1      26.204   0.254  16.584  0.00  0.00    -0.033 A 
ATOM      2  C   UNL d   1      25.223   0.270  16.780  0.00  0.00     0.050 A 
ATOM      3  C   UNL d   1      26.851   0.649  17.237  0.00  0.00     0.014 A 
ATOM      4  C   UNL d   1      24.890   0.680  17.629  0.00  0.00     0.099 A 
ATOM      5  C   UNL d   1      25.537   1.074  18.282  0.00  0.00     0.098 A 
ATOM      6  C   UNL d   1      26.517   1.059  18.085  0.00  0.00     0.040 A 
ENDROOT
BRANCH   1   7
ATOM      7  C   UNL d   1      26.538  -0.156  15.735  0.00  0.00     0.018 C 
BRANCH   7   8
ATOM      8  C   UNL d   1      26.391   0.310  14.863  0.00  0.00     0.082 C 
BRANCH   8   9
ATOM      9  C   UNL d   1      26.709  -0.108  14.012  0.00  0.00     0.165 C 
ATOM     10  O   UNL d   1      27.666  -0.018  13.738  0.00  0.00    -0.647 OA
BRANCH   9  11
ATOM     11  O   UNL d   1      26.069  -0.618  13.436  0.00  0.00    -0.773 OA
ATOM     12  H   UNL d   1      26.234  -0.784  12.862  0.00  0.00     0.167 HD
ENDBRANCH   9  11
ENDBRANCH   8   9
ENDBRANCH   7   8
ENDBRANCH   1   7
BRANCH   4  13
ATOM     13  O   UNL d   1      23.909   0.695  17.825  0.00  0.00    -0.358 OA
ATOM     14  H   UNL d   1      23.500   0.715  17.360  0.00  0.00     0.217 HD
ENDBRANCH   4  13
BRANCH   5  15
ATOM     15  O   UNL d   1      25.203   1.485  19.130  0.00  0.00    -0.358 OA
ATOM     16  H   UNL d   1      24.593   1.525  19.237  0.00  0.00     0.217 HD
ENDBRANCH   5  15
TORSDOF 6
ENDMDL
MODEL 2
REMARK VINA RESULT:    -5.853     11.528     12.381
REMARK INTER + INTRA:          -6.427
REMARK INTER:                  -7.413
REMARK INTRA:                   0.986
REMARK UNBOUND:                 0.966
REMARK  6 active torsions:
REMARK  status: ('A' for Active; 'I' for Inactive)
REMARK    1  A    between atoms: O_1  and  C_8 
REMARK    2  A    between atoms: O_2  and  C_9 
REMARK    3  A    between atoms: O_3  and  C_13 
REMARK    4  A    between atoms: C_5  and  C_11 
REMARK    5  A    between atoms: C_11  and  C_12 
REMARK    6  A    between atoms: C_12  and  C_13 
ROOT
ATOM      1  C   UNL d   1      22.474   8.939   9.068  0.00  0.00    -0.033 A 
ATOM      2  C   UNL d   1      21.748   8.423   9.522  0.00  0.00     0.050 A 
ATOM      3  C   UNL d   1      22.470   9.037   8.072  0.00  0.00     0.014 A 
ATOM      4  C   UNL d   1      21.018   8.006   8.982  0.00  0.00     0.099 A 
ATOM      5  C   UNL d   1      21.013   8.104   7.987  0.00  0.00     0.098 A 
ATOM      6  C   UNL d   1      21.739   8.620   7.532  0.00  0.00     0.040 A 
ENDROOT
BRANCH   1   7
ATOM      7  C   UNL d   1      23.205   9.357   9.608  0.00  0.00     0.018 C 
BRANCH   7   8
ATOM      8  C   UNL d   1      23.192  10.340   9.791  0.00  0.00     0.082 C 
BRANCH   8   9
ATOM      9  C   UNL d   1      23.910  10.754  10.349  0.00  0.00     0.165 C 
ATOM     10  O   UNL d   1      24.429  11.534   9.998  0.00  0.00    -0.647 OA
BRANCH   9  11
ATOM     11  O   UNL d   1      24.111  10.389  11.258  0.00  0.00    -0.773 OA
ATOM     12  H   UNL d   1      24.299   9.802  11.322  0.00  0.00     0.167 HD
ENDBRANCH   9  11
ENDBRANCH   8   9
ENDBRANCH   7   8
ENDBRANCH   1   7
BRANCH   4  13
ATOM     13  O   UNL d   1      20.292   7.490   9.437  0.00  0.00    -0.358 OA
ATOM     14  H   UNL d   1      19.728   7.739   9.500  0.00  0.00     0.217 HD
ENDBRANCH   4  13
BRANCH   5  15
ATOM     15  O   UNL d   1      20.283   7.686   7.446  0.00  0.00    -0.358 OA
ATOM     16  H   UNL d   1      19.946   7.224   7.686  0.00  0.00     0.217 HD
ENDBRANCH   5  15
TORSDOF 6
ENDMDL
MODEL 3
REMARK VINA RESULT:    -5.781      1.194      4.178
REMARK INTER + INTRA:          -6.336
REMARK INTER:                  -7.495
REMARK INTRA:                   1.159
REMARK UNBOUND:                 0.966
REMARK  6 active torsions:
REMARK  status: ('A' for Active; 'I' for Inactive)
REMARK    1  A    between atoms: O_1  and  C_8 
REMARK    2  A    between atoms: O_2  and  C_9 
REMARK    3  A    between atoms: O_3  and  C_13 
REMARK    4  A    between atoms: C_5  and  C_11 
REMARK    5  A    between atoms: C_11  and  C_12 
REMARK    6  A    between atoms: C_12  and  C_13 
ROOT
ATOM      1  C   UNL d   1      26.523   0.160  16.094  0.00  0.00    -0.033 A 
ATOM      2  C   UNL d   1      27.460   0.211  16.440  0.00  0.00     0.050 A 
ATOM      3  C   UNL d   1      26.358  -0.015  15.124  0.00  0.00     0.014 A 
ATOM      4  C   UNL d   1      28.231   0.086  15.816  0.00  0.00     0.099 A 
ATOM      5  C   UNL d   1      28.065  -0.088  14.845  0.00  0.00     0.098 A 
ATOM      6  C   UNL d   1      27.129  -0.139  14.499  0.00  0.00     0.040 A 
ENDROOT
BRANCH   1   7
ATOM      7  C   UNL d   1      25.752   0.284  16.719  0.00  0.00     0.018 C 
BRANCH   7   8
ATOM      8  C   UNL d   1      25.850   0.870  17.523  0.00  0.00     0.082 C 
BRANCH   8   9
ATOM      9  C   UNL d   1      25.067   1.027  18.126  0.00  0.00     0.165 C 
ATOM     10  O   UNL d   1      24.154   0.732  17.845  0.00  0.00    -0.647 OA
BRANCH   9  11
ATOM     11  O   UNL d   1      25.198   1.478  19.008  0.00  0.00    -0.773 OA
ATOM     12  H   UNL d   1      25.561   1.218  19.439  0.00  0.00     0.167 HD
ENDBRANCH   9  11
ENDBRANCH   8   9
ENDBRANCH   7   8
ENDBRANCH   1   7
BRANCH   4  13
ATOM     13  O   UNL d   1      29.168   0.137  16.162  0.00  0.00    -0.358 OA
ATOM     14  H   UNL d   1      29.587   0.491  15.872  0.00  0.00     0.217 HD
ENDBRANCH   4  13
BRANCH   5  15
ATOM     15  O   UNL d   1      28.837  -0.213  14.221  0.00  0.00    -0.358 OA
ATOM     16  H   UNL d   1      29.384  -0.405  14.439  0.00  0.00     0.217 HD
ENDBRANCH   5  15
TORSDOF 6
ENDMDL
MODEL 4
REMARK VINA RESULT:    -5.744     18.267     19.709
REMARK INTER + INTRA:          -6.289
REMARK INTER:                  -7.290
REMARK INTRA:                   1.001
REMARK UNBOUND:                 0.966
REMARK  6 active torsions:
REMARK  status: ('A' for Active; 'I' for Inactive)
REMARK    1  A    between atoms: O_1  and  C_8 
REMARK    2  A    between atoms: O_2  and  C_9 
REMARK    3  A    between atoms: O_3  and  C_13 
REMARK    4  A    between atoms: C_5  and  C_11 
REMARK    5  A    between atoms: C_11  and  C_12 
REMARK    6  A    between atoms: C_12  and  C_13 
ROOT
ATOM      1  C   UNL d   1      33.958  -0.054  -1.058  0.00  0.00    -0.033 A 
ATOM      2  C   UNL d   1      34.238  -0.457  -1.929  0.00  0.00     0.050 A 
ATOM      3  C   UNL d   1      33.041   0.333  -0.958  0.00  0.00     0.014 A 
ATOM      4  C   UNL d   1      33.602  -0.472  -2.701  0.00  0.00     0.099 A 
ATOM      5  C   UNL d   1      32.686  -0.085  -2.601  0.00  0.00     0.098 A 
ATOM      6  C   UNL d   1      32.405   0.318  -1.729  0.00  0.00     0.040 A 
ENDROOT
BRANCH   1   7
ATOM      7  C   UNL d   1      34.594  -0.039  -0.286  0.00  0.00     0.018 C 
BRANCH   7   8
ATOM      8  C   UNL d   1      35.049  -0.881   0.003  0.00  0.00     0.082 C 
BRANCH   8   9
ATOM      9  C   UNL d   1      35.673  -0.869   0.784  0.00  0.00     0.165 C 
ATOM     10  O   UNL d   1      35.309  -0.831   1.715  0.00  0.00    -0.647 OA
BRANCH   9  11
ATOM     11  O   UNL d   1      36.662  -0.895   0.635  0.00  0.00    -0.773 OA
ATOM     12  H   UNL d   1      36.981  -0.367   0.580  0.00  0.00     0.167 HD
ENDBRANCH   9  11
ENDBRANCH   8   9
ENDBRANCH   7   8
ENDBRANCH   1   7
BRANCH   4  13
ATOM     13  O   UNL d   1      33.882  -0.875  -3.572  0.00  0.00    -0.358 OA
ATOM     14  H   UNL d   1      33.930  -0.518  -4.077  0.00  0.00     0.217 HD
ENDBRANCH   4  13
BRANCH   5  15
ATOM     15  O   UNL d   1      32.049  -0.100  -3.372  0.00  0.00    -0.358 OA
ATOM     16  H   UNL d   1      31.487  -0.352  -3.305  0.00  0.00     0.217 HD
ENDBRANCH   5  15
TORSDOF 6
ENDMDL
MODEL 5
REMARK VINA RESULT:    -5.706     16.081     19.056
REMARK INTER + INTRA:          -6.242
REMARK INTER:                  -7.265
REMARK INTRA:                   1.023
REMARK UNBOUND:                 0.966
REMARK  6 active torsions:
REMARK  status: ('A' for Active; 'I' for Inactive)
REMARK    1  A    between atoms: O_1  and  C_8 
REMARK    2  A    between atoms: O_2  and  C_9 
REMARK    3  A    between atoms: O_3  and  C_13 
REMARK    4  A    between atoms: C_5  and  C_11 
REMARK    5  A    between atoms: C_11  and  C_12 
REMARK    6  A    between atoms: C_12  and  C_13 
ROOT
ATOM      1  C   UNL d   1      32.601   0.407  -1.129  0.00  0.00    -0.033 A 
ATOM      2  C   UNL d   1      33.549   0.113  -1.005  0.00  0.00     0.050 A 
ATOM      3  C   UNL d   1      32.156   0.297  -2.017  0.00  0.00     0.014 A 
ATOM      4  C   UNL d   1      34.051  -0.292  -1.769  0.00  0.00     0.099 A 
ATOM      5  C   UNL d   1      33.605  -0.402  -2.658  0.00  0.00     0.098 A 
ATOM      6  C   UNL d   1      32.657  -0.107  -2.781  0.00  0.00     0.040 A 
ENDROOT
BRANCH   1   7
ATOM      7  C   UNL d   1      32.100   0.812  -0.364  0.00  0.00     0.018 C 
BRANCH   7   8
ATOM      8  C   UNL d   1      31.956   0.286   0.474  0.00  0.00     0.082 C 
BRANCH   8   9
ATOM      9  C   UNL d   1      31.556   0.726   1.278  0.00  0.00     0.165 C 
ATOM     10  O   UNL d   1      32.016   0.661   2.164  0.00  0.00    -0.647 OA
BRANCH   9  11
ATOM     11  O   UNL d   1      30.696   1.230   1.197  0.00  0.00    -0.773 OA
ATOM     12  H   UNL d   1      30.218   1.089   1.566  0.00  0.00     0.167 HD
ENDBRANCH   9  11
ENDBRANCH   8   9
ENDBRANCH   7   8
ENDBRANCH   1   7
BRANCH   4  13
ATOM     13  O   UNL d   1      34.998  -0.587  -1.646  0.00  0.00    -0.358 OA
ATOM     14  H   UNL d   1      35.293  -0.883  -2.104  0.00  0.00     0.217 HD
ENDBRANCH   4  13
BRANCH   5  15
ATOM     15  O   UNL d   1      34.106  -0.807  -3.422  0.00  0.00    -0.358 OA
ATOM     16  H   UNL d   1      34.237  -0.465  -3.923  0.00  0.00     0.217 HD
ENDBRANCH   5  15
TORSDOF 6
ENDMDL
