MODEL 1
REMARK VINA RESULT:    -8.163      0.000      0.000
REMARK INTER + INTRA:          -6.363
REMARK INTER:                  -9.843
REMARK INTRA:                   3.480
REMARK UNBOUND:                 3.470
REMARK  6 active torsions:
REMARK  status: ('A' for Active; 'I' for Inactive)
REMARK    1  A    between atoms: O_2  and  C_7 
REMARK    2  A    between atoms: O_3  and  C_13 
REMARK    3  A    between atoms: O_4  and  C_18 
REMARK    4  A    between atoms: O_5  and  C_19 
REMARK    5  A    between atoms: O_6  and  C_21 
REMARK    6  A    between atoms: C_8  and  C_12 
ROOT
ATOM      1  O   UNL d   1      14.819   7.418   3.463  0.00  0.00    -0.338 OA
ATOM      2  C   UNL d   1      16.034   7.009   2.299  0.00  0.00     0.156 A 
ATOM      3  C   UNL d   1      15.071   7.064   2.563  0.00  0.00     0.191 A 
ATOM      4  C   UNL d   1      16.745   7.308   2.935  0.00  0.00     0.079 A 
ATOM      5  C   UNL d   1      16.492   7.662   3.836  0.00  0.00     0.011 A 
ATOM      6  C   UNL d   1      15.529   7.717   4.100  0.00  0.00     0.081 A 
ATOM      7  C   UNL d   1      17.243   7.970   4.488  0.00  0.00     0.077 A 
ATOM      8  C   UNL d   1      15.251   8.084   5.034  0.00  0.00     0.074 A 
ATOM      9  C   UNL d   1      16.988   8.340   5.428  0.00  0.00     0.073 A 
ATOM     10  C   UNL d   1      15.986   8.397   5.703  0.00  0.00     0.071 A 
ENDROOT
BRANCH   3  11
ATOM     11  C   UNL d   1      14.360   6.764   1.926  0.00  0.00    -0.024 A 
ATOM     12  C   UNL d   1      13.998   5.834   1.983  0.00  0.00     0.049 A 
ATOM     13  C   UNL d   1      13.287   5.535   1.346  0.00  0.00     0.099 A 
ATOM     14  C   UNL d   1      12.938   6.166   0.653  0.00  0.00     0.098 A 
ATOM     15  C   UNL d   1      13.301   7.096   0.596  0.00  0.00     0.040 A 
ATOM     16  C   UNL d   1      14.012   7.395   1.233  0.00  0.00     0.013 A 
BRANCH  13  17
ATOM     17  O   UNL d   1      12.924   4.605   1.403  0.00  0.00    -0.358 OA
ATOM     18  H   UNL d   1      12.321   4.500   1.304  0.00  0.00     0.217 HD
ENDBRANCH  13  17
BRANCH  14  19
ATOM     19  O   UNL d   1      12.228   5.866   0.017  0.00  0.00    -0.358 OA
ATOM     20  H   UNL d   1      12.303   5.949  -0.593  0.00  0.00     0.217 HD
ENDBRANCH  14  19
ENDBRANCH   3  11
BRANCH   2  21
ATOM     21  O   UNL d   1      16.286   6.655   1.398  0.00  0.00    -0.392 OA
ATOM     22  H   UNL d   1      16.276   7.029   0.904  0.00  0.00     0.210 HD
ENDBRANCH   2  21
BRANCH   7  23
ATOM     23  O   UNL d   1      18.203   7.911   4.213  0.00  0.00    -0.360 OA
ATOM     24  H   UNL d   1      18.426   7.383   3.978  0.00  0.00     0.217 HD
ENDBRANCH   7  23
BRANCH  10  25
ATOM     25  O   UNL d   1      15.730   8.751   6.602  0.00  0.00    -0.361 OA
ATOM     26  H   UNL d   1      15.152   8.678   6.811  0.00  0.00     0.217 HD
ENDBRANCH  10  25
TORSDOF 6
ENDMDL
MODEL 2
REMARK VINA RESULT:    -8.118      0.992      2.219
REMARK INTER + INTRA:          -6.309
REMARK INTER:                  -9.782
REMARK INTRA:                   3.473
REMARK UNBOUND:                 3.470
REMARK  6 active torsions:
REMARK  status: ('A' for Active; 'I' for Inactive)
REMARK    1  A    between atoms: O_2  and  C_7 
REMARK    2  A    between atoms: O_3  and  C_13 
REMARK    3  A    between atoms: O_4  and  C_18 
REMARK    4  A    between atoms: O_5  and  C_19 
REMARK    5  A    between atoms: O_6  and  C_21 
REMARK    6  A    between atoms: C_8  and  C_12 
ROOT
ATOM      1  O   UNL d   1      15.999   7.233   3.554  0.00  0.00    -0.338 OA
ATOM      2  C   UNL d   1      14.489   7.679   4.277  0.00  0.00     0.156 A 
ATOM      3  C   UNL d   1      14.999   7.229   3.544  0.00  0.00     0.191 A 
ATOM      4  C   UNL d   1      14.980   8.132   5.022  0.00  0.00     0.079 A 
ATOM      5  C   UNL d   1      15.980   8.136   5.032  0.00  0.00     0.011 A 
ATOM      6  C   UNL d   1      16.489   7.686   4.299  0.00  0.00     0.081 A 
ATOM      7  C   UNL d   1      16.477   8.611   5.814  0.00  0.00     0.077 A 
ATOM      8  C   UNL d   1      17.531   7.681   4.296  0.00  0.00     0.074 A 
ATOM      9  C   UNL d   1      17.519   8.619   5.832  0.00  0.00     0.073 A 
ATOM     10  C   UNL d   1      18.049   8.151   5.068  0.00  0.00     0.071 A 
ENDROOT
BRANCH   3  11
ATOM     11  C   UNL d   1      14.508   6.776   2.799  0.00  0.00    -0.024 A 
ATOM     12  C   UNL d   1      14.317   7.272   1.952  0.00  0.00     0.049 A 
ATOM     13  C   UNL d   1      13.827   6.819   1.207  0.00  0.00     0.099 A 
ATOM     14  C   UNL d   1      13.527   5.870   1.310  0.00  0.00     0.098 A 
ATOM     15  C   UNL d   1      13.718   5.375   2.158  0.00  0.00     0.040 A 
ATOM     16  C   UNL d   1      14.209   5.828   2.902  0.00  0.00     0.013 A 
BRANCH  13  17
ATOM     17  O   UNL d   1      13.636   7.314   0.360  0.00  0.00    -0.358 OA
ATOM     18  H   UNL d   1      13.784   7.062  -0.187  0.00  0.00     0.217 HD
ENDBRANCH  13  17
BRANCH  14  19
ATOM     19  O   UNL d   1      13.037   5.417   0.566  0.00  0.00    -0.358 OA
ATOM     20  H   UNL d   1      12.542   5.690   0.310  0.00  0.00     0.217 HD
ENDBRANCH  14  19
ENDBRANCH   3  11
BRANCH   2  21
ATOM     21  O   UNL d   1      13.489   7.675   4.267  0.00  0.00    -0.392 OA
ATOM     22  H   UNL d   1      13.181   8.096   3.931  0.00  0.00     0.210 HD
ENDBRANCH   2  21
BRANCH   7  23
ATOM     23  O   UNL d   1      15.957   9.057   6.543  0.00  0.00    -0.360 OA
ATOM     24  H   UNL d   1      15.880   8.772   7.087  0.00  0.00     0.217 HD
ENDBRANCH   7  23
BRANCH  10  25
ATOM     25  O   UNL d   1      19.049   8.153   5.075  0.00  0.00    -0.361 OA
ATOM     26  H   UNL d   1      19.355   8.319   5.587  0.00  0.00     0.217 HD
ENDBRANCH  10  25
TORSDOF 6
ENDMDL
MODEL 3
REMARK VINA RESULT:    -8.044     11.429     13.304
REMARK INTER + INTRA:          -6.219
REMARK INTER:                  -9.693
REMARK INTRA:                   3.473
REMARK UNBOUND:                 3.470
REMARK  6 active torsions:
REMARK  status: ('A' for Active; 'I' for Inactive)
REMARK    1  A    between atoms: O_2  and  C_7 
REMARK    2  A    between atoms: O_3  and  C_13 
REMARK    3  A    between atoms: O_4  and  C_18 
REMARK    4  A    between atoms: O_5  and  C_19 
REMARK    5  A    between atoms: O_6  and  C_21 
REMARK    6  A    between atoms: C_8  and  C_12 
ROOT
ATOM      1  O   UNL d   1      15.713  -5.860   0.800  0.00  0.00    -0.338 OA
ATOM      2  C   UNL d   1      16.387  -5.369   2.318  0.00  0.00     0.156 A 
ATOM      3  C   UNL d   1      15.599  -5.458   1.708  0.00  0.00     0.191 A 
ATOM      4  C   UNL d   1      17.288  -5.683   2.019  0.00  0.00     0.079 A 
ATOM      5  C   UNL d   1      17.402  -6.085   1.110  0.00  0.00     0.011 A 
ATOM      6  C   UNL d   1      16.614  -6.174   0.501  0.00  0.00     0.081 A 
ATOM      7  C   UNL d   1      18.346  -6.406   0.812  0.00  0.00     0.077 A 
ATOM      8  C   UNL d   1      16.716  -6.590  -0.449  0.00  0.00     0.074 A 
ATOM      9  C   UNL d   1      18.472  -6.826  -0.133  0.00  0.00     0.073 A 
ATOM     10  C   UNL d   1      17.652  -6.919  -0.767  0.00  0.00     0.071 A 
ENDROOT
BRANCH   3  11
ATOM     11  C   UNL d   1      14.698  -5.145   2.008  0.00  0.00    -0.024 A 
ATOM     12  C   UNL d   1      14.388  -4.222   1.779  0.00  0.00     0.049 A 
ATOM     13  C   UNL d   1      13.487  -3.909   2.078  0.00  0.00     0.099 A 
ATOM     14  C   UNL d   1      12.895  -4.519   2.606  0.00  0.00     0.098 A 
ATOM     15  C   UNL d   1      13.205  -5.442   2.834  0.00  0.00     0.040 A 
ATOM     16  C   UNL d   1      14.106  -5.755   2.535  0.00  0.00     0.013 A 
BRANCH  13  17
ATOM     17  O   UNL d   1      13.177  -2.986   1.850  0.00  0.00    -0.358 OA
ATOM     18  H   UNL d   1      12.661  -2.906   1.516  0.00  0.00     0.217 HD
ENDBRANCH  13  17
BRANCH  14  19
ATOM     19  O   UNL d   1      11.994  -4.206   2.905  0.00  0.00    -0.358 OA
ATOM     20  H   UNL d   1      11.501  -4.280   2.535  0.00  0.00     0.217 HD
ENDBRANCH  14  19
ENDBRANCH   3  11
BRANCH   2  21
ATOM     21  O   UNL d   1      16.273  -4.967   3.226  0.00  0.00    -0.392 OA
ATOM     22  H   UNL d   1      16.124  -5.328   3.708  0.00  0.00     0.210 HD
ENDBRANCH   2  21
BRANCH   7  23
ATOM     23  O   UNL d   1      19.127  -6.312   1.430  0.00  0.00    -0.360 OA
ATOM     24  H   UNL d   1      19.699  -6.443   1.229  0.00  0.00     0.217 HD
ENDBRANCH   7  23
BRANCH  10  25
ATOM     25  O   UNL d   1      17.762  -7.320  -1.676  0.00  0.00    -0.361 OA
ATOM     26  H   UNL d   1      17.465  -7.844  -1.822  0.00  0.00     0.217 HD
ENDBRANCH  10  25
TORSDOF 6
ENDMDL
MODEL 4
REMARK VINA RESULT:    -7.940     12.609     14.442
REMARK INTER + INTRA:          -6.094
REMARK INTER:                  -9.555
REMARK INTRA:                   3.460
REMARK UNBOUND:                 3.470
REMARK  6 active torsions:
REMARK  status: ('A' for Active; 'I' for Inactive)
REMARK    1  A    between atoms: O_2  and  C_7 
REMARK    2  A    between atoms: O_3  and  C_13 
REMARK    3  A    between atoms: O_4  and  C_18 
REMARK    4  A    between atoms: O_5  and  C_19 
REMARK    5  A    between atoms: O_6  and  C_21 
REMARK    6  A    between atoms: C_8  and  C_12 
ROOT
ATOM      1  O   UNL d   1      17.030  -5.918   1.414  0.00  0.00    -0.338 OA
ATOM      2  C   UNL d   1      17.178  -6.887  -0.014  0.00  0.00     0.156 A 
ATOM      3  C   UNL d   1      17.498  -6.636   0.900  0.00  0.00     0.191 A 
ATOM      4  C   UNL d   1      16.390  -6.419  -0.413  0.00  0.00     0.079 A 
ATOM      5  C   UNL d   1      15.921  -5.701   0.101  0.00  0.00     0.011 A 
ATOM      6  C   UNL d   1      16.241  -5.450   1.015  0.00  0.00     0.081 A 
ATOM      7  C   UNL d   1      15.101  -5.223  -0.327  0.00  0.00     0.077 A 
ATOM      8  C   UNL d   1      15.763  -4.704   1.563  0.00  0.00     0.074 A 
ATOM      9  C   UNL d   1      14.608  -4.474   0.202  0.00  0.00     0.073 A 
ATOM     10  C   UNL d   1      14.941  -4.213   1.153  0.00  0.00     0.071 A 
ENDROOT
BRANCH   3  11
ATOM     11  C   UNL d   1      18.287  -7.104   1.299  0.00  0.00    -0.024 A 
ATOM     12  C   UNL d   1      19.210  -6.755   1.137  0.00  0.00     0.049 A 
ATOM     13  C   UNL d   1      19.999  -7.222   1.536  0.00  0.00     0.099 A 
ATOM     14  C   UNL d   1      19.864  -8.038   2.098  0.00  0.00     0.098 A 
ATOM     15  C   UNL d   1      18.941  -8.387   2.260  0.00  0.00     0.040 A 
ATOM     16  C   UNL d   1      18.153  -7.920   1.860  0.00  0.00     0.013 A 
BRANCH  13  17
ATOM     17  O   UNL d   1      20.922  -6.873   1.374  0.00  0.00    -0.358 OA
ATOM     18  H   UNL d   1      21.175  -6.470   1.771  0.00  0.00     0.217 HD
ENDBRANCH  13  17
BRANCH  14  19
ATOM     19  O   UNL d   1      20.653  -8.506   2.497  0.00  0.00    -0.358 OA
ATOM     20  H   UNL d   1      20.707  -9.122   2.446  0.00  0.00     0.217 HD
ENDBRANCH  14  19
ENDBRANCH   3  11
BRANCH   2  21
ATOM     21  O   UNL d   1      17.647  -7.605  -0.528  0.00  0.00    -0.392 OA
ATOM     22  H   UNL d   1      18.000  -7.457  -1.015  0.00  0.00     0.210 HD
ENDBRANCH   2  21
BRANCH   7  23
ATOM     23  O   UNL d   1      14.790  -5.482  -1.242  0.00  0.00    -0.360 OA
ATOM     24  H   UNL d   1      14.201  -5.652  -1.332  0.00  0.00     0.217 HD
ENDBRANCH   7  23
BRANCH  10  25
ATOM     25  O   UNL d   1      14.475  -3.495   1.670  0.00  0.00    -0.361 OA
ATOM     26  H   UNL d   1      13.940  -3.617   1.958  0.00  0.00     0.217 HD
ENDBRANCH  10  25
TORSDOF 6
ENDMDL
MODEL 5
REMARK VINA RESULT:    -7.900     14.112     15.545
REMARK INTER + INTRA:          -6.046
REMARK INTER:                  -9.751
REMARK INTRA:                   3.705
REMARK UNBOUND:                 3.470
REMARK  6 active torsions:
REMARK  status: ('A' for Active; 'I' for Inactive)
REMARK    1  A    between atoms: O_2  and  C_7 
REMARK    2  A    between atoms: O_3  and  C_13 
REMARK    3  A    between atoms: O_4  and  C_18 
REMARK    4  A    between atoms: O_5  and  C_19 
REMARK    5  A    between atoms: O_6  and  C_21 
REMARK    6  A    between atoms: C_8  and  C_12 
ROOT
ATOM      1  O   UNL d   1      19.321  -6.488   2.245  0.00  0.00    -0.338 OA
ATOM      2  C   UNL d   1      19.268  -8.209   2.062  0.00  0.00     0.156 A 
ATOM      3  C   UNL d   1      19.793  -7.360   2.121  0.00  0.00     0.191 A 
ATOM      4  C   UNL d   1      18.270  -8.186   2.128  0.00  0.00     0.079 A 
ATOM      5  C   UNL d   1      17.798  -7.313   2.252  0.00  0.00     0.011 A 
ATOM      6  C   UNL d   1      18.323  -6.464   2.311  0.00  0.00     0.081 A 
ATOM      7  C   UNL d   1      16.759  -7.304   2.319  0.00  0.00     0.077 A 
ATOM      8  C   UNL d   1      17.845  -5.547   2.440  0.00  0.00     0.074 A 
ATOM      9  C   UNL d   1      16.260  -6.399   2.449  0.00  0.00     0.073 A 
ATOM     10  C   UNL d   1      16.806  -5.515   2.509  0.00  0.00     0.071 A 
ENDROOT
BRANCH   3  11
ATOM     11  C   UNL d   1      20.791  -7.384   2.055  0.00  0.00    -0.024 A 
ATOM     12  C   UNL d   1      21.248  -7.001   1.252  0.00  0.00     0.049 A 
ATOM     13  C   UNL d   1      22.245  -7.024   1.186  0.00  0.00     0.099 A 
ATOM     14  C   UNL d   1      22.786  -7.430   1.923  0.00  0.00     0.098 A 
ATOM     15  C   UNL d   1      22.328  -7.813   2.726  0.00  0.00     0.040 A 
ATOM     16  C   UNL d   1      21.331  -7.790   2.792  0.00  0.00     0.013 A 
BRANCH  13  17
ATOM     17  O   UNL d   1      22.703  -6.641   0.384  0.00  0.00    -0.358 OA
ATOM     18  H   UNL d   1      22.835  -7.005  -0.101  0.00  0.00     0.217 HD
ENDBRANCH  13  17
BRANCH  14  19
ATOM     19  O   UNL d   1      23.783  -7.454   1.857  0.00  0.00    -0.358 OA
ATOM     20  H   UNL d   1      24.067  -7.956   1.630  0.00  0.00     0.217 HD
ENDBRANCH  14  19
ENDBRANCH   3  11
BRANCH   2  21
ATOM     21  O   UNL d   1      19.740  -9.082   1.938  0.00  0.00    -0.392 OA
ATOM     22  H   UNL d   1      19.443  -9.614   2.051  0.00  0.00     0.210 HD
ENDBRANCH   2  21
BRANCH   7  23
ATOM     23  O   UNL d   1      16.244  -8.159   2.260  0.00  0.00    -0.360 OA
ATOM     24  H   UNL d   1      16.017  -8.346   1.714  0.00  0.00     0.217 HD
ENDBRANCH   7  23
BRANCH  10  25
ATOM     25  O   UNL d   1      16.337  -4.641   2.633  0.00  0.00    -0.361 OA
ATOM     26  H   UNL d   1      16.604  -4.189   2.962  0.00  0.00     0.217 HD
ENDBRANCH  10  25
TORSDOF 6
ENDMDL
