MODEL 1
REMARK VINA RESULT:    -9.083      0.000      0.000
REMARK INTER + INTRA:           0.185
REMARK INTER:                 -12.773
REMARK INTRA:                  12.957
REMARK UNBOUND:                12.453
REMARK  9 active torsions:
REMARK  status: ('A' for Active; 'I' for Inactive)
REMARK    1  A    between atoms: C_15  and  O_2 
REMARK    2  A    between atoms: O_2  and  C_17 
REMARK    3  A    between atoms: C_11  and  O_3 
REMARK    4  A    between atoms: C_12  and  O_4 
REMARK    5  A    between atoms: C_13  and  O_5 
REMARK    6  A    between atoms: O_8  and  C_23 
REMARK    7  A    between atoms: O_9  and  C_28 
REMARK    8  A    between atoms: O_10  and  C_31 
REMARK    9  A    between atoms: C_18  and  C_22 
ROOT
ATOM      1  O   UNL d   1      13.962  -6.270   2.742  0.00  0.00    -0.306 OA
ATOM      2  O   UNL d   1      15.638  -4.231   1.314  0.00  0.00    -0.284 OA
ATOM      3  C   UNL d   1      15.512  -5.577   2.397  0.00  0.00     0.157 A 
ATOM      4  C   UNL d   1      14.953  -6.256   2.873  0.00  0.00     0.123 A 
ATOM      5  C   UNL d   1      15.079  -4.911   1.790  0.00  0.00     0.223 A 
ATOM      6  C   UNL d   1      14.088  -4.924   1.658  0.00  0.00     0.084 A 
ATOM      7  C   UNL d   1      13.530  -5.603   2.134  0.00  0.00     0.096 A 
ATOM      8  C   UNL d   1      13.652  -4.224   1.022  0.00  0.00     0.085 A 
ATOM      9  C   UNL d   1      12.496  -5.630   2.007  0.00  0.00     0.075 A 
ATOM     10  C   UNL d   1      12.619  -4.232   0.880  0.00  0.00     0.074 A 
ATOM     11  C   UNL d   1      12.037  -4.939   1.376  0.00  0.00     0.071 A 
ENDROOT
BRANCH   3  12
ATOM     12  O   UNL d   1      16.503  -5.564   2.529  0.00  0.00    -0.311 OA
BRANCH  12  13
ATOM     13  C   UNL d   1      17.107  -5.913   1.813  0.00  0.00     0.298 A 
ATOM     14  O   UNL d   1      16.722  -6.253   0.955  0.00  0.00    -0.351 OA
ATOM     15  C   UNL d   1      17.326  -6.602   0.239  0.00  0.00     0.152 A 
ATOM     16  C   UNL d   1      18.316  -6.611   0.380  0.00  0.00     0.178 A 
ATOM     17  C   UNL d   1      16.940  -6.942  -0.618  0.00  0.00     0.042 C 
ATOM     18  C   UNL d   1      18.702  -6.270   1.238  0.00  0.00     0.183 A 
ATOM     19  C   UNL d   1      18.097  -5.921   1.954  0.00  0.00     0.205 A 
BRANCH  16  20
ATOM     20  O   UNL d   1      18.920  -6.960  -0.336  0.00  0.00    -0.390 OA
ATOM     21  H   UNL d   1      18.924  -6.693  -0.896  0.00  0.00     0.210 HD
ENDBRANCH  16  20
BRANCH  18  22
ATOM     22  O   UNL d   1      19.692  -6.279   1.379  0.00  0.00    -0.390 OA
ATOM     23  H   UNL d   1      19.926  -6.148   1.938  0.00  0.00     0.210 HD
ENDBRANCH  18  22
BRANCH  19  24
ATOM     24  O   UNL d   1      18.483  -5.581   2.812  0.00  0.00    -0.388 OA
ATOM     25  H   UNL d   1      18.540  -4.971   2.905  0.00  0.00     0.210 HD
ENDBRANCH  19  24
ENDBRANCH  12  13
ENDBRANCH   3  12
BRANCH   4  26
ATOM     26  C   UNL d   1      15.386  -6.922   3.481  0.00  0.00     0.001 A 
ATOM     27  C   UNL d   1      15.600  -7.840   3.145  0.00  0.00     0.017 A 
ATOM     28  C   UNL d   1      16.033  -8.506   3.753  0.00  0.00     0.037 A 
ATOM     29  C   UNL d   1      16.251  -8.254   4.696  0.00  0.00     0.065 A 
ATOM     30  C   UNL d   1      16.037  -7.337   5.031  0.00  0.00     0.037 A 
ATOM     31  C   UNL d   1      15.605  -6.671   4.424  0.00  0.00     0.017 A 
BRANCH  29  32
ATOM     32  O   UNL d   1      16.684  -8.920   5.303  0.00  0.00    -0.361 OA
ATOM     33  H   UNL d   1      16.648  -9.526   5.175  0.00  0.00     0.217 HD
ENDBRANCH  29  32
ENDBRANCH   4  26
BRANCH   8  34
ATOM     34  O   UNL d   1      14.220  -3.549   0.551  0.00  0.00    -0.360 OA
ATOM     35  H   UNL d   1      14.641  -3.734   0.135  0.00  0.00     0.217 HD
ENDBRANCH   8  34
BRANCH  11  36
ATOM     36  O   UNL d   1      11.046  -4.956   1.246  0.00  0.00    -0.361 OA
ATOM     37  H   UNL d   1      10.700  -4.480   1.443  0.00  0.00     0.217 HD
ENDBRANCH  11  36
TORSDOF 9
ENDMDL
MODEL 2
REMARK VINA RESULT:    -8.812     13.998     15.481
REMARK INTER + INTRA:           0.551
REMARK INTER:                 -11.876
REMARK INTRA:                  12.426
REMARK UNBOUND:                12.453
REMARK  9 active torsions:
REMARK  status: ('A' for Active; 'I' for Inactive)
REMARK    1  A    between atoms: C_15  and  O_2 
REMARK    2  A    between atoms: O_2  and  C_17 
REMARK    3  A    between atoms: C_11  and  O_3 
REMARK    4  A    between atoms: C_12  and  O_4 
REMARK    5  A    between atoms: C_13  and  O_5 
REMARK    6  A    between atoms: O_8  and  C_23 
REMARK    7  A    between atoms: O_9  and  C_28 
REMARK    8  A    between atoms: O_10  and  C_31 
REMARK    9  A    between atoms: C_18  and  C_22 
ROOT
ATOM      1  O   UNL d   1      16.488   7.726   3.455  0.00  0.00    -0.306 OA
ATOM      2  O   UNL d   1      17.764   8.607   0.887  0.00  0.00    -0.284 OA
ATOM      3  C   UNL d   1      17.813   8.457   2.612  0.00  0.00     0.157 A 
ATOM      4  C   UNL d   1      17.387   8.163   3.468  0.00  0.00     0.123 A 
ATOM      5  C   UNL d   1      17.339   8.313   1.743  0.00  0.00     0.223 A 
ATOM      6  C   UNL d   1      16.440   7.875   1.731  0.00  0.00     0.084 A 
ATOM      7  C   UNL d   1      16.015   7.581   2.587  0.00  0.00     0.096 A 
ATOM      8  C   UNL d   1      15.959   7.732   0.818  0.00  0.00     0.085 A 
ATOM      9  C   UNL d   1      15.078   7.124   2.589  0.00  0.00     0.075 A 
ATOM     10  C   UNL d   1      15.022   7.276   0.797  0.00  0.00     0.074 A 
ATOM     11  C   UNL d   1      14.579   6.970   1.688  0.00  0.00     0.071 A 
ENDROOT
BRANCH   3  12
ATOM     12  O   UNL d   1      18.711   8.895   2.625  0.00  0.00    -0.311 OA
BRANCH  12  13
ATOM     13  C   UNL d   1      18.801   9.861   2.381  0.00  0.00     0.298 A 
ATOM     14  O   UNL d   1      18.046  10.493   2.558  0.00  0.00    -0.351 OA
ATOM     15  C   UNL d   1      18.136  11.459   2.314  0.00  0.00     0.152 A 
ATOM     16  C   UNL d   1      18.979  11.792   1.893  0.00  0.00     0.178 A 
ATOM     17  C   UNL d   1      17.381  12.091   2.491  0.00  0.00     0.042 C 
ATOM     18  C   UNL d   1      19.734  11.160   1.716  0.00  0.00     0.183 A 
ATOM     19  C   UNL d   1      19.644  10.194   1.960  0.00  0.00     0.205 A 
BRANCH  16  20
ATOM     20  O   UNL d   1      19.069  12.758   1.650  0.00  0.00    -0.390 OA
ATOM     21  H   UNL d   1      19.517  13.102   1.904  0.00  0.00     0.210 HD
ENDBRANCH  16  20
BRANCH  18  22
ATOM     22  O   UNL d   1      20.577  11.493   1.296  0.00  0.00    -0.390 OA
ATOM     23  H   UNL d   1      20.879  11.975   1.545  0.00  0.00     0.210 HD
ENDBRANCH  18  22
BRANCH  19  24
ATOM     24  O   UNL d   1      20.399   9.562   1.783  0.00  0.00    -0.388 OA
ATOM     25  H   UNL d   1      20.981   9.774   1.755  0.00  0.00     0.210 HD
ENDBRANCH  19  24
ENDBRANCH  12  13
ENDBRANCH   3  12
BRANCH   4  26
ATOM     26  C   UNL d   1      17.861   8.308   4.337  0.00  0.00     0.001 A 
ATOM     27  C   UNL d   1      17.540   9.011   4.971  0.00  0.00     0.017 A 
ATOM     28  C   UNL d   1      18.013   9.155   5.840  0.00  0.00     0.037 A 
ATOM     29  C   UNL d   1      18.808   8.596   6.074  0.00  0.00     0.065 A 
ATOM     30  C   UNL d   1      19.129   7.892   5.441  0.00  0.00     0.037 A 
ATOM     31  C   UNL d   1      18.656   7.748   4.572  0.00  0.00     0.017 A 
BRANCH  29  32
ATOM     32  O   UNL d   1      19.282   8.740   6.943  0.00  0.00    -0.361 OA
ATOM     33  H   UNL d   1      19.644   9.237   7.020  0.00  0.00     0.217 HD
ENDBRANCH  29  32
ENDBRANCH   4  26
BRANCH   8  34
ATOM     34  O   UNL d   1      16.393   8.029  -0.032  0.00  0.00    -0.360 OA
ATOM     35  H   UNL d   1      17.010   7.999  -0.092  0.00  0.00     0.217 HD
ENDBRANCH   8  34
BRANCH  11  36
ATOM     36  O   UNL d   1      13.680   6.532   1.680  0.00  0.00    -0.361 OA
ATOM     37  H   UNL d   1      13.626   5.938   1.509  0.00  0.00     0.217 HD
ENDBRANCH  11  36
TORSDOF 9
ENDMDL
MODEL 3
REMARK VINA RESULT:    -8.488     14.194     15.847
REMARK INTER + INTRA:           0.988
REMARK INTER:                 -11.591
REMARK INTRA:                  12.579
REMARK UNBOUND:                12.453
REMARK  9 active torsions:
REMARK  status: ('A' for Active; 'I' for Inactive)
REMARK    1  A    between atoms: C_15  and  O_2 
REMARK    2  A    between atoms: O_2  and  C_17 
REMARK    3  A    between atoms: C_11  and  O_3 
REMARK    4  A    between atoms: C_12  and  O_4 
REMARK    5  A    between atoms: C_13  and  O_5 
REMARK    6  A    between atoms: O_8  and  C_23 
REMARK    7  A    between atoms: O_9  and  C_28 
REMARK    8  A    between atoms: O_10  and  C_31 
REMARK    9  A    between atoms: C_18  and  C_22 
ROOT
ATOM      1  O   UNL d   1      16.815   8.349   3.498  0.00  0.00    -0.306 OA
ATOM      2  O   UNL d   1      17.180   8.308   0.520  0.00  0.00    -0.284 OA
ATOM      3  C   UNL d   1      17.714   8.808   2.090  0.00  0.00     0.157 A 
ATOM      4  C   UNL d   1      17.593   8.821   3.083  0.00  0.00     0.123 A 
ATOM      5  C   UNL d   1      17.058   8.322   1.513  0.00  0.00     0.223 A 
ATOM      6  C   UNL d   1      16.281   7.849   1.928  0.00  0.00     0.084 A 
ATOM      7  C   UNL d   1      16.159   7.863   2.920  0.00  0.00     0.096 A 
ATOM      8  C   UNL d   1      15.606   7.347   1.313  0.00  0.00     0.085 A 
ATOM      9  C   UNL d   1      15.354   7.376   3.367  0.00  0.00     0.075 A 
ATOM     10  C   UNL d   1      14.793   6.853   1.739  0.00  0.00     0.074 A 
ATOM     11  C   UNL d   1      14.666   6.867   2.772  0.00  0.00     0.071 A 
ENDROOT
BRANCH   3  12
ATOM     12  O   UNL d   1      18.492   9.280   1.675  0.00  0.00    -0.311 OA
BRANCH  12  13
ATOM     13  C   UNL d   1      18.338  10.068   1.078  0.00  0.00     0.298 A 
ATOM     14  O   UNL d   1      17.616  10.725   1.294  0.00  0.00    -0.351 OA
ATOM     15  C   UNL d   1      17.462  11.512   0.697  0.00  0.00     0.152 A 
ATOM     16  C   UNL d   1      18.030  11.643  -0.115  0.00  0.00     0.178 A 
ATOM     17  C   UNL d   1      16.740  12.170   0.913  0.00  0.00     0.042 C 
ATOM     18  C   UNL d   1      18.752  10.985  -0.331  0.00  0.00     0.183 A 
ATOM     19  C   UNL d   1      18.906  10.198   0.266  0.00  0.00     0.205 A 
BRANCH  16  20
ATOM     20  O   UNL d   1      17.876  12.430  -0.712  0.00  0.00    -0.390 OA
ATOM     21  H   UNL d   1      18.022  13.000  -0.516  0.00  0.00     0.210 HD
ENDBRANCH  16  20
BRANCH  18  22
ATOM     22  O   UNL d   1      19.321  11.116  -1.143  0.00  0.00    -0.390 OA
ATOM     23  H   UNL d   1      19.576  11.669  -1.258  0.00  0.00     0.210 HD
ENDBRANCH  18  22
BRANCH  19  24
ATOM     24  O   UNL d   1      19.628   9.541   0.050  0.00  0.00    -0.388 OA
ATOM     25  H   UNL d   1      19.686   9.022   0.385  0.00  0.00     0.210 HD
ENDBRANCH  19  24
ENDBRANCH  12  13
ENDBRANCH   3  12
BRANCH   4  26
ATOM     26  C   UNL d   1      18.249   9.307   3.660  0.00  0.00     0.001 A 
ATOM     27  C   UNL d   1      19.156   8.919   3.822  0.00  0.00     0.017 A 
ATOM     28  C   UNL d   1      19.812   9.405   4.399  0.00  0.00     0.037 A 
ATOM     29  C   UNL d   1      19.561  10.280   4.815  0.00  0.00     0.065 A 
ATOM     30  C   UNL d   1      18.654  10.668   4.653  0.00  0.00     0.037 A 
ATOM     31  C   UNL d   1      17.998  10.182   4.075  0.00  0.00     0.017 A 
BRANCH  29  32
ATOM     32  O   UNL d   1      20.217  10.766   5.392  0.00  0.00    -0.361 OA
ATOM     33  H   UNL d   1      20.159  11.377   5.480  0.00  0.00     0.217 HD
ENDBRANCH  29  32
ENDBRANCH   4  26
BRANCH   8  34
ATOM     34  O   UNL d   1      15.737   7.340   0.322  0.00  0.00    -0.360 OA
ATOM     35  H   UNL d   1      15.614   7.849  -0.011  0.00  0.00     0.217 HD
ENDBRANCH   8  34
BRANCH  11  36
ATOM     36  O   UNL d   1      13.890   6.396   3.191  0.00  0.00    -0.361 OA
ATOM     37  H   UNL d   1      13.621   6.631   3.698  0.00  0.00     0.217 HD
ENDBRANCH  11  36
TORSDOF 9
ENDMDL
MODEL 4
REMARK VINA RESULT:    -8.482     14.960     16.931
REMARK INTER + INTRA:           0.996
REMARK INTER:                 -11.622
REMARK INTRA:                  12.618
REMARK UNBOUND:                12.453
REMARK  9 active torsions:
REMARK  status: ('A' for Active; 'I' for Inactive)
REMARK    1  A    between atoms: C_15  and  O_2 
REMARK    2  A    between atoms: O_2  and  C_17 
REMARK    3  A    between atoms: C_11  and  O_3 
REMARK    4  A    between atoms: C_12  and  O_4 
REMARK    5  A    between atoms: C_13  and  O_5 
REMARK    6  A    between atoms: O_8  and  C_23 
REMARK    7  A    between atoms: O_9  and  C_28 
REMARK    8  A    between atoms: O_10  and  C_31 
REMARK    9  A    between atoms: C_18  and  C_22 
ROOT
ATOM      1  O   UNL d   1      19.650  10.643   4.529  0.00  0.00    -0.306 OA
ATOM      2  O   UNL d   1      18.135   8.715   6.258  0.00  0.00    -0.284 OA
ATOM      3  C   UNL d   1      18.148   9.955   5.048  0.00  0.00     0.157 A 
ATOM      4  C   UNL d   1      18.653  10.597   4.472  0.00  0.00     0.123 A 
ATOM      5  C   UNL d   1      18.640   9.358   5.682  0.00  0.00     0.223 A 
ATOM      6  C   UNL d   1      19.637   9.403   5.739  0.00  0.00     0.084 A 
ATOM      7  C   UNL d   1      20.142  10.046   5.163  0.00  0.00     0.096 A 
ATOM      8  C   UNL d   1      20.136   8.775   6.404  0.00  0.00     0.085 A 
ATOM      9  C   UNL d   1      21.182  10.105   5.211  0.00  0.00     0.075 A 
ATOM     10  C   UNL d   1      21.175   8.817   6.469  0.00  0.00     0.074 A 
ATOM     11  C   UNL d   1      21.702   9.486   5.869  0.00  0.00     0.071 A 
ENDROOT
BRANCH   3  12
ATOM     12  O   UNL d   1      17.151   9.909   4.991  0.00  0.00    -0.311 OA
BRANCH  12  13
ATOM     13  C   UNL d   1      16.706   9.077   4.659  0.00  0.00     0.298 A 
ATOM     14  O   UNL d   1      17.105   8.566   3.897  0.00  0.00    -0.351 OA
ATOM     15  C   UNL d   1      16.661   7.734   3.566  0.00  0.00     0.152 A 
ATOM     16  C   UNL d   1      15.818   7.412   3.997  0.00  0.00     0.178 A 
ATOM     17  C   UNL d   1      17.060   7.224   2.804  0.00  0.00     0.042 C 
ATOM     18  C   UNL d   1      15.419   7.922   4.759  0.00  0.00     0.183 A 
ATOM     19  C   UNL d   1      15.863   8.754   5.090  0.00  0.00     0.205 A 
BRANCH  16  20
ATOM     20  O   UNL d   1      15.374   6.579   3.665  0.00  0.00    -0.390 OA
ATOM     21  H   UNL d   1      15.494   6.035   3.936  0.00  0.00     0.210 HD
ENDBRANCH  16  20
BRANCH  18  22
ATOM     22  O   UNL d   1      14.576   7.600   5.189  0.00  0.00    -0.390 OA
ATOM     23  H   UNL d   1      14.136   7.329   4.846  0.00  0.00     0.210 HD
ENDBRANCH  18  22
BRANCH  19  24
ATOM     24  O   UNL d   1      15.464   9.265   5.852  0.00  0.00    -0.388 OA
ATOM     25  H   UNL d   1      15.541   9.064   6.434  0.00  0.00     0.210 HD
ENDBRANCH  19  24
ENDBRANCH  12  13
ENDBRANCH   3  12
BRANCH   4  26
ATOM     26  C   UNL d   1      18.161  11.194   3.838  0.00  0.00     0.001 A 
ATOM     27  C   UNL d   1      17.642  11.974   4.187  0.00  0.00     0.017 A 
ATOM     28  C   UNL d   1      17.150  12.571   3.553  0.00  0.00     0.037 A 
ATOM     29  C   UNL d   1      17.176  12.387   2.571  0.00  0.00     0.065 A 
ATOM     30  C   UNL d   1      17.694  11.607   2.222  0.00  0.00     0.037 A 
ATOM     31  C   UNL d   1      18.187  11.010   2.856  0.00  0.00     0.017 A 
BRANCH  29  32
ATOM     32  O   UNL d   1      16.684  12.984   1.937  0.00  0.00    -0.361 OA
ATOM     33  H   UNL d   1      16.280  12.742   1.534  0.00  0.00     0.217 HD
ENDBRANCH  29  32
ENDBRANCH   4  26
BRANCH   8  34
ATOM     34  O   UNL d   1      19.621   8.137   6.975  0.00  0.00    -0.360 OA
ATOM     35  H   UNL d   1      19.740   8.099   7.583  0.00  0.00     0.217 HD
ENDBRANCH   8  34
BRANCH  11  36
ATOM     36  O   UNL d   1      22.699   9.535   5.923  0.00  0.00    -0.361 OA
ATOM     37  H   UNL d   1      23.009   9.939   5.570  0.00  0.00     0.217 HD
ENDBRANCH  11  36
TORSDOF 9
ENDMDL
MODEL 5
REMARK VINA RESULT:    -8.474     13.125     14.988
REMARK INTER + INTRA:           1.007
REMARK INTER:                 -11.558
REMARK INTRA:                  12.565
REMARK UNBOUND:                12.453
REMARK  9 active torsions:
REMARK  status: ('A' for Active; 'I' for Inactive)
REMARK    1  A    between atoms: C_15  and  O_2 
REMARK    2  A    between atoms: O_2  and  C_17 
REMARK    3  A    between atoms: C_11  and  O_3 
REMARK    4  A    between atoms: C_12  and  O_4 
REMARK    5  A    between atoms: C_13  and  O_5 
REMARK    6  A    between atoms: O_8  and  C_23 
REMARK    7  A    between atoms: O_9  and  C_28 
REMARK    8  A    between atoms: O_10  and  C_31 
REMARK    9  A    between atoms: C_18  and  C_22 
ROOT
ATOM      1  O   UNL d   1      16.247   8.392   1.151  0.00  0.00    -0.306 OA
ATOM      2  O   UNL d   1      16.533   6.454   3.422  0.00  0.00    -0.284 OA
ATOM      3  C   UNL d   1      17.123   7.816   2.530  0.00  0.00     0.157 A 
ATOM      4  C   UNL d   1      17.027   8.463   1.773  0.00  0.00     0.123 A 
ATOM      5  C   UNL d   1      16.438   7.100   2.665  0.00  0.00     0.223 A 
ATOM      6  C   UNL d   1      15.658   7.030   2.043  0.00  0.00     0.084 A 
ATOM      7  C   UNL d   1      15.563   7.676   1.286  0.00  0.00     0.096 A 
ATOM      8  C   UNL d   1      14.953   6.279   2.197  0.00  0.00     0.085 A 
ATOM      9  C   UNL d   1      14.756   7.616   0.629  0.00  0.00     0.075 A 
ATOM     10  C   UNL d   1      14.138   6.199   1.553  0.00  0.00     0.074 A 
ATOM     11  C   UNL d   1      14.038   6.872   0.764  0.00  0.00     0.071 A 
ENDROOT
BRANCH   3  12
ATOM     12  O   UNL d   1      17.902   7.887   3.152  0.00  0.00    -0.311 OA
BRANCH  12  13
ATOM     13  C   UNL d   1      17.758   8.142   4.108  0.00  0.00     0.298 A 
ATOM     14  O   UNL d   1      16.888   8.545   4.392  0.00  0.00    -0.351 OA
ATOM     15  C   UNL d   1      16.743   8.801   5.348  0.00  0.00     0.152 A 
ATOM     16  C   UNL d   1      17.469   8.653   6.020  0.00  0.00     0.178 A 
ATOM     17  C   UNL d   1      15.873   9.203   5.632  0.00  0.00     0.042 C 
ATOM     18  C   UNL d   1      18.339   8.251   5.736  0.00  0.00     0.183 A 
ATOM     19  C   UNL d   1      18.484   7.995   4.780  0.00  0.00     0.205 A 
BRANCH  16  20
ATOM     20  O   UNL d   1      17.325   8.909   6.976  0.00  0.00    -0.390 OA
ATOM     21  H   UNL d   1      17.574   9.431   7.198  0.00  0.00     0.210 HD
ENDBRANCH  16  20
BRANCH  18  22
ATOM     22  O   UNL d   1      19.065   8.103   6.408  0.00  0.00    -0.390 OA
ATOM     23  H   UNL d   1      19.657   8.074   6.224  0.00  0.00     0.210 HD
ENDBRANCH  18  22
BRANCH  19  24
ATOM     24  O   UNL d   1      19.354   7.592   4.496  0.00  0.00    -0.388 OA
ATOM     25  H   UNL d   1      19.888   7.858   4.664  0.00  0.00     0.210 HD
ENDBRANCH  19  24
ENDBRANCH  12  13
ENDBRANCH   3  12
BRANCH   4  26
ATOM     26  C   UNL d   1      17.712   9.179   1.638  0.00  0.00     0.001 A 
ATOM     27  C   UNL d   1      18.593   8.956   1.221  0.00  0.00     0.017 A 
ATOM     28  C   UNL d   1      19.278   9.672   1.086  0.00  0.00     0.037 A 
ATOM     29  C   UNL d   1      19.081  10.611   1.367  0.00  0.00     0.065 A 
ATOM     30  C   UNL d   1      18.200  10.834   1.784  0.00  0.00     0.037 A 
ATOM     31  C   UNL d   1      17.515  10.118   1.919  0.00  0.00     0.017 A 
BRANCH  29  32
ATOM     32  O   UNL d   1      19.765  11.328   1.232  0.00  0.00    -0.361 OA
ATOM     33  H   UNL d   1      20.251  11.369   1.615  0.00  0.00     0.217 HD
ENDBRANCH  29  32
ENDBRANCH   4  26
BRANCH   8  34
ATOM     34  O   UNL d   1      15.058   5.638   2.957  0.00  0.00    -0.360 OA
ATOM     35  H   UNL d   1      15.166   5.037   2.844  0.00  0.00     0.217 HD
ENDBRANCH   8  34
BRANCH  11  36
ATOM     36  O   UNL d   1      13.260   6.805   0.140  0.00  0.00    -0.361 OA
ATOM     37  H   UNL d   1      13.278   6.408  -0.336  0.00  0.00     0.217 HD
ENDBRANCH  11  36
TORSDOF 9
ENDMDL
