MODEL 1
REMARK VINA RESULT:    -7.733      0.000      0.000
REMARK INTER + INTRA:          -8.805
REMARK INTER:                  -9.784
REMARK INTRA:                   0.979
REMARK UNBOUND:                 0.962
REMARK  6 active torsions:
REMARK  status: ('A' for Active; 'I' for Inactive)
REMARK    1  A    between atoms: O_1  and  C_8 
REMARK    2  A    between atoms: O_2  and  C_9 
REMARK    3  A    between atoms: O_3  and  C_13 
REMARK    4  A    between atoms: C_5  and  C_11 
REMARK    5  A    between atoms: C_11  and  C_12 
REMARK    6  A    between atoms: C_12  and  C_13 
ROOT
ATOM      1  C   UNL d   1      14.267 -32.635  34.058  0.00  0.00    -0.033 A 
ATOM      2  C   UNL d   1      15.052 -32.025  34.169  0.00  0.00     0.050 A 
ATOM      3  C   UNL d   1      14.324 -33.585  34.364  0.00  0.00     0.014 A 
ATOM      4  C   UNL d   1      15.894 -32.366  34.586  0.00  0.00     0.099 A 
ATOM      5  C   UNL d   1      15.952 -33.317  34.892  0.00  0.00     0.098 A 
ATOM      6  C   UNL d   1      15.167 -33.926  34.781  0.00  0.00     0.040 A 
ENDROOT
BRANCH   1   7
ATOM      7  C   UNL d   1      13.424 -32.293  33.641  0.00  0.00     0.018 C 
BRANCH   7   8
ATOM      8  C   UNL d   1      12.640 -32.060  34.217  0.00  0.00     0.082 C 
BRANCH   8   9
ATOM      9  C   UNL d   1      11.876 -31.542  33.834  0.00  0.00     0.165 C 
ATOM     10  O   UNL d   1      11.883 -30.542  33.868  0.00  0.00    -0.647 OA
BRANCH   9  11
ATOM     11  O   UNL d   1      11.104 -32.022  33.417  0.00  0.00    -0.773 OA
ATOM     12  H   UNL d   1      11.174 -32.605  33.216  0.00  0.00     0.167 HD
ENDBRANCH   9  11
ENDBRANCH   8   9
ENDBRANCH   7   8
ENDBRANCH   1   7
BRANCH   4  13
ATOM     13  O   UNL d   1      16.680 -31.757  34.697  0.00  0.00    -0.358 OA
ATOM     14  H   UNL d   1      17.180 -31.950  35.008  0.00  0.00     0.217 HD
ENDBRANCH   4  13
BRANCH   5  15
ATOM     15  O   UNL d   1      16.794 -33.658  35.309  0.00  0.00    -0.358 OA
ATOM     16  H   UNL d   1      17.024 -33.382  35.814  0.00  0.00     0.217 HD
ENDBRANCH   5  15
TORSDOF 6
ENDMDL
MODEL 2
REMARK VINA RESULT:    -7.410      0.923      4.169
REMARK INTER + INTRA:          -8.397
REMARK INTER:                  -9.351
REMARK INTRA:                   0.955
REMARK UNBOUND:                 0.962
REMARK  6 active torsions:
REMARK  status: ('A' for Active; 'I' for Inactive)
REMARK    1  A    between atoms: O_1  and  C_8 
REMARK    2  A    between atoms: O_2  and  C_9 
REMARK    3  A    between atoms: O_3  and  C_13 
REMARK    4  A    between atoms: C_5  and  C_11 
REMARK    5  A    between atoms: C_11  and  C_12 
REMARK    6  A    between atoms: C_12  and  C_13 
ROOT
ATOM      1  C   UNL d   1      13.527 -31.737  33.825  0.00  0.00    -0.033 A 
ATOM      2  C   UNL d   1      13.318 -30.766  33.710  0.00  0.00     0.050 A 
ATOM      3  C   UNL d   1      12.789 -32.412  33.809  0.00  0.00     0.014 A 
ATOM      4  C   UNL d   1      12.372 -30.470  33.577  0.00  0.00     0.099 A 
ATOM      5  C   UNL d   1      11.635 -31.145  33.561  0.00  0.00     0.098 A 
ATOM      6  C   UNL d   1      11.843 -32.116  33.676  0.00  0.00     0.040 A 
ENDROOT
BRANCH   1   7
ATOM      7  C   UNL d   1      14.473 -32.033  33.958  0.00  0.00     0.018 C 
BRANCH   7   8
ATOM      8  C   UNL d   1      14.811 -32.228  34.878  0.00  0.00     0.082 C 
BRANCH   8   9
ATOM      9  C   UNL d   1      15.759 -32.517  35.012  0.00  0.00     0.165 C 
ATOM     10  O   UNL d   1      15.960 -33.447  35.320  0.00  0.00    -0.647 OA
BRANCH   9  11
ATOM     11  O   UNL d   1      16.507 -31.876  34.836  0.00  0.00    -0.773 OA
ATOM     12  H   UNL d   1      17.085 -32.087  34.764  0.00  0.00     0.167 HD
ENDBRANCH   9  11
ENDBRANCH   8   9
ENDBRANCH   7   8
ENDBRANCH   1   7
BRANCH   4  13
ATOM     13  O   UNL d   1      12.164 -29.499  33.462  0.00  0.00    -0.358 OA
ATOM     14  H   UNL d   1      11.671 -29.252  33.745  0.00  0.00     0.217 HD
ENDBRANCH   4  13
BRANCH   5  15
ATOM     15  O   UNL d   1      10.689 -30.849  33.428  0.00  0.00    -0.358 OA
ATOM     16  H   UNL d   1      10.264 -30.965  33.865  0.00  0.00     0.217 HD
ENDBRANCH   5  15
TORSDOF 6
ENDMDL
MODEL 3
REMARK VINA RESULT:    -6.799      1.318      2.176
REMARK INTER + INTRA:          -7.625
REMARK INTER:                  -8.652
REMARK INTRA:                   1.027
REMARK UNBOUND:                 0.962
REMARK  6 active torsions:
REMARK  status: ('A' for Active; 'I' for Inactive)
REMARK    1  A    between atoms: O_1  and  C_8 
REMARK    2  A    between atoms: O_2  and  C_9 
REMARK    3  A    between atoms: O_3  and  C_13 
REMARK    4  A    between atoms: C_5  and  C_11 
REMARK    5  A    between atoms: C_11  and  C_12 
REMARK    6  A    between atoms: C_12  and  C_13 
ROOT
ATOM      1  C   UNL d   1      15.780 -32.466  34.295  0.00  0.00    -0.033 A 
ATOM      2  C   UNL d   1      16.101 -33.390  34.502  0.00  0.00     0.050 A 
ATOM      3  C   UNL d   1      16.406 -31.797  33.892  0.00  0.00     0.014 A 
ATOM      4  C   UNL d   1      17.047 -33.646  34.305  0.00  0.00     0.099 A 
ATOM      5  C   UNL d   1      17.673 -32.978  33.902  0.00  0.00     0.098 A 
ATOM      6  C   UNL d   1      17.352 -32.054  33.696  0.00  0.00     0.040 A 
ENDROOT
BRANCH   1   7
ATOM      7  C   UNL d   1      14.834 -32.209  34.492  0.00  0.00     0.018 C 
BRANCH   7   8
ATOM      8  C   UNL d   1      14.115 -32.399  33.823  0.00  0.00     0.082 C 
BRANCH   8   9
ATOM      9  C   UNL d   1      13.185 -32.067  33.980  0.00  0.00     0.165 C 
ATOM     10  O   UNL d   1      12.402 -32.649  33.761  0.00  0.00    -0.647 OA
BRANCH   9  11
ATOM     11  O   UNL d   1      13.038 -31.152  34.357  0.00  0.00    -0.773 OA
ATOM     12  H   UNL d   1      12.775 -30.712  34.009  0.00  0.00     0.167 HD
ENDBRANCH   9  11
ENDBRANCH   8   9
ENDBRANCH   7   8
ENDBRANCH   1   7
BRANCH   4  13
ATOM     13  O   UNL d   1      17.368 -34.570  34.511  0.00  0.00    -0.358 OA
ATOM     14  H   UNL d   1      17.928 -34.655  34.764  0.00  0.00     0.217 HD
ENDBRANCH   4  13
BRANCH   5  15
ATOM     15  O   UNL d   1      18.619 -33.234  33.705  0.00  0.00    -0.358 OA
ATOM     16  H   UNL d   1      18.788 -33.377  33.126  0.00  0.00     0.217 HD
ENDBRANCH   5  15
TORSDOF 6
ENDMDL
MODEL 4
REMARK VINA RESULT:    -6.537     11.491     12.293
REMARK INTER + INTRA:          -7.294
REMARK INTER:                  -8.413
REMARK INTRA:                   1.119
REMARK UNBOUND:                 0.962
REMARK  6 active torsions:
REMARK  status: ('A' for Active; 'I' for Inactive)
REMARK    1  A    between atoms: O_1  and  C_8 
REMARK    2  A    between atoms: O_2  and  C_9 
REMARK    3  A    between atoms: O_3  and  C_13 
REMARK    4  A    between atoms: C_5  and  C_11 
REMARK    5  A    between atoms: C_11  and  C_12 
REMARK    6  A    between atoms: C_12  and  C_13 
ROOT
ATOM      1  C   UNL d   1       5.402 -25.648  29.701  0.00  0.00    -0.033 A 
ATOM      2  C   UNL d   1       4.721 -26.351  29.493  0.00  0.00     0.050 A 
ATOM      3  C   UNL d   1       6.313 -25.699  29.291  0.00  0.00     0.014 A 
ATOM      4  C   UNL d   1       4.951 -27.104  28.876  0.00  0.00     0.099 A 
ATOM      5  C   UNL d   1       5.862 -27.154  28.467  0.00  0.00     0.098 A 
ATOM      6  C   UNL d   1       6.543 -26.452  28.675  0.00  0.00     0.040 A 
ENDROOT
BRANCH   1   7
ATOM      7  C   UNL d   1       5.172 -24.896  30.317  0.00  0.00     0.018 C 
BRANCH   7   8
ATOM      8  C   UNL d   1       4.731 -25.085  31.194  0.00  0.00     0.082 C 
BRANCH   8   9
ATOM      9  C   UNL d   1       4.700 -24.378  31.901  0.00  0.00     0.165 C 
ATOM     10  O   UNL d   1       4.350 -24.597  32.812  0.00  0.00    -0.647 OA
BRANCH   9  11
ATOM     11  O   UNL d   1       5.018 -23.452  31.697  0.00  0.00    -0.773 OA
ATOM     12  H   UNL d   1       5.611 -23.300  31.796  0.00  0.00     0.167 HD
ENDBRANCH   9  11
ENDBRANCH   8   9
ENDBRANCH   7   8
ENDBRANCH   1   7
BRANCH   4  13
ATOM     13  O   UNL d   1       4.271 -27.806  28.669  0.00  0.00    -0.358 OA
ATOM     14  H   UNL d   1       3.725 -27.805  28.964  0.00  0.00     0.217 HD
ENDBRANCH   4  13
BRANCH   5  15
ATOM     15  O   UNL d   1       6.093 -27.907  27.851  0.00  0.00    -0.358 OA
ATOM     16  H   UNL d   1       6.559 -27.845  27.447  0.00  0.00     0.217 HD
ENDBRANCH   5  15
TORSDOF 6
ENDMDL
MODEL 5
REMARK VINA RESULT:    -6.512     12.188     13.940
REMARK INTER + INTRA:          -7.263
REMARK INTER:                  -8.357
REMARK INTRA:                   1.094
REMARK UNBOUND:                 0.962
REMARK  6 active torsions:
REMARK  status: ('A' for Active; 'I' for Inactive)
REMARK    1  A    between atoms: O_1  and  C_8 
REMARK    2  A    between atoms: O_2  and  C_9 
REMARK    3  A    between atoms: O_3  and  C_13 
REMARK    4  A    between atoms: C_5  and  C_11 
REMARK    5  A    between atoms: C_11  and  C_12 
REMARK    6  A    between atoms: C_12  and  C_13 
ROOT
ATOM      1  C   UNL d   1       3.522 -24.658  33.170  0.00  0.00    -0.033 A 
ATOM      2  C   UNL d   1       2.921 -25.385  33.503  0.00  0.00     0.050 A 
ATOM      3  C   UNL d   1       3.311 -23.702  33.375  0.00  0.00     0.014 A 
ATOM      4  C   UNL d   1       2.109 -25.156  34.040  0.00  0.00     0.099 A 
ATOM      5  C   UNL d   1       1.898 -24.200  34.244  0.00  0.00     0.098 A 
ATOM      6  C   UNL d   1       2.499 -23.473  33.912  0.00  0.00     0.040 A 
ENDROOT
BRANCH   1   7
ATOM      7  C   UNL d   1       4.334 -24.887  32.633  0.00  0.00     0.018 C 
BRANCH   7   8
ATOM      8  C   UNL d   1       4.684 -24.240  31.956  0.00  0.00     0.082 C 
BRANCH   8   9
ATOM      9  C   UNL d   1       5.481 -24.479  31.402  0.00  0.00     0.165 C 
ATOM     10  O   UNL d   1       5.358 -24.905  30.505  0.00  0.00    -0.647 OA
BRANCH   9  11
ATOM     11  O   UNL d   1       6.402 -24.293  31.744  0.00  0.00    -0.773 OA
ATOM     12  H   UNL d   1       6.897 -24.475  31.418  0.00  0.00     0.167 HD
ENDBRANCH   9  11
ENDBRANCH   8   9
ENDBRANCH   7   8
ENDBRANCH   1   7
BRANCH   4  13
ATOM     13  O   UNL d   1       1.508 -25.883  34.372  0.00  0.00    -0.358 OA
ATOM     14  H   UNL d   1       1.131 -26.178  33.978  0.00  0.00     0.217 HD
ENDBRANCH   4  13
BRANCH   5  15
ATOM     15  O   UNL d   1       1.086 -23.971  34.781  0.00  0.00    -0.358 OA
ATOM     16  H   UNL d   1       0.914 -23.379  34.845  0.00  0.00     0.217 HD
ENDBRANCH   5  15
TORSDOF 6
ENDMDL
