MODEL 1
REMARK VINA RESULT:   -13.009      0.000      0.000
REMARK INTER + INTRA:         -14.742
REMARK INTER:                 -16.130
REMARK INTRA:                   1.389
REMARK UNBOUND:                 1.310
REMARK  6 active torsions:
REMARK  status: ('A' for Active; 'I' for Inactive)
REMARK    1  A    between atoms: C_22  and  O_1 
REMARK    2  A    between atoms: C_24  and  O_2 
REMARK    3  A    between atoms: O_3  and  C_30 
REMARK    4  A    between atoms: O_4  and  C_33 
REMARK    5  A    between atoms: C_14  and  C_30 
REMARK    6  A    between atoms: C_19  and  C_33 
ROOT
ATOM      1  C   UNL d   1       2.798 -16.387  11.350  0.00  0.00    -0.028 A 
ATOM      2  C   UNL d   1       3.606 -15.846  11.581  0.00  0.00     0.007 A 
ATOM      3  C   UNL d   1       3.533 -15.019  12.211  0.00  0.00    -0.033 A 
ATOM      4  C   UNL d   1       2.883 -17.178  10.745  0.00  0.00    -0.013 A 
ATOM      5  C   UNL d   1       2.607 -14.753  12.605  0.00  0.00     0.007 A 
ATOM      6  C   UNL d   1       1.862 -16.140  11.733  0.00  0.00     0.011 A 
ATOM      7  C   UNL d   1       3.776 -17.428  10.370  0.00  0.00    -0.069 A 
ATOM      8  C   UNL d   1       1.765 -15.317  12.364  0.00  0.00     0.007 A 
ATOM      9  C   UNL d   1       2.507 -13.896  13.263  0.00  0.00     0.010 A 
ATOM     10  C   UNL d   1       3.880 -18.249   9.737  0.00  0.00     0.038 A 
ATOM     11  C   UNL d   1       4.499 -16.095  11.207  0.00  0.00     0.033 A 
ATOM     12  C   UNL d   1       4.424 -14.446  12.448  0.00  0.00     0.044 A 
ATOM     13  C   UNL d   1       2.032 -17.733  10.513  0.00  0.00     0.016 A 
ATOM     14  C   UNL d   1       3.043 -18.818   9.492  0.00  0.00     0.053 A 
ATOM     15  C   UNL d   1       1.845 -16.691  11.327  0.00  0.00     0.016 C 
ATOM     16  C   UNL d   1       2.112 -18.558   9.883  0.00  0.00     0.022 A 
ATOM     17  C   UNL d   1       3.383 -13.308  13.514  0.00  0.00     0.157 A 
ATOM     18  C   UNL d   1       4.584 -16.886  10.601  0.00  0.00    -0.022 A 
ATOM     19  C   UNL d   1       4.349 -13.585  13.104  0.00  0.00     0.148 A 
ATOM     20  C   UNL d   1       4.423 -15.274  11.832  0.00  0.00     0.016 C 
ATOM     21  C   UNL d   1       1.901 -17.207  10.932  0.00  0.00     0.021 C 
ATOM     22  C   UNL d   1       4.858 -18.500   9.343  0.00  0.00    -0.005 A 
ATOM     23  C   UNL d   1       3.126 -19.678   8.836  0.00  0.00     0.021 A 
ATOM     24  C   UNL d   1       4.967 -19.355   8.685  0.00  0.00    -0.014 A 
ATOM     25  C   UNL d   1       1.525 -14.068  13.344  0.00  0.00     0.020 C 
ATOM     26  C   UNL d   1       4.095 -19.948   8.429  0.00  0.00     0.006 A 
ATOM     27  C   UNL d   1       5.657 -17.947   9.585  0.00  0.00     0.011 C 
ATOM     28  C   UNL d   1       5.865 -19.596   8.316  0.00  0.00     0.010 C 
ENDROOT
BRANCH   9  29
ATOM     29  C   UNL d   1       1.939 -13.298  13.828  0.00  0.00     0.176 C 
BRANCH  29  30
ATOM     30  O   UNL d   1       1.299 -13.692  14.488  0.00  0.00    -0.400 OA
ATOM     31  H   UNL d   1       1.440 -14.221  14.778  0.00  0.00     0.209 HD
ENDBRANCH  29  30
ENDBRANCH   9  29
BRANCH  17  32
ATOM     32  O   UNL d   1       3.303 -12.517  14.119  0.00  0.00    -0.392 OA
ATOM     33  H   UNL d   1       3.306 -12.595  14.735  0.00  0.00     0.210 HD
ENDBRANCH  17  32
BRANCH  19  34
ATOM     34  O   UNL d   1       5.163 -13.051  13.328  0.00  0.00    -0.393 OA
ATOM     35  H   UNL d   1       5.645 -13.322  13.609  0.00  0.00     0.210 HD
ENDBRANCH  19  34
BRANCH  14  36
ATOM     36  C   UNL d   1       2.239 -19.365   9.257  0.00  0.00     0.149 C 
ATOM     37  O   UNL d   1       1.726 -19.164   8.422  0.00  0.00    -0.649 OA
BRANCH  36  38
ATOM     38  O   UNL d   1       1.949 -20.111   9.855  0.00  0.00    -0.776 OA
ATOM     39  H   UNL d   1       1.589 -20.564   9.632  0.00  0.00     0.167 HD
ENDBRANCH  36  38
ENDBRANCH  14  36
TORSDOF 6
ENDMDL
MODEL 2
REMARK VINA RESULT:   -12.731     13.922     16.073
REMARK INTER + INTRA:         -14.399
REMARK INTER:                 -15.707
REMARK INTRA:                   1.309
REMARK UNBOUND:                 1.310
REMARK  6 active torsions:
REMARK  status: ('A' for Active; 'I' for Inactive)
REMARK    1  A    between atoms: C_22  and  O_1 
REMARK    2  A    between atoms: C_24  and  O_2 
REMARK    3  A    between atoms: O_3  and  C_30 
REMARK    4  A    between atoms: O_4  and  C_33 
REMARK    5  A    between atoms: C_14  and  C_30 
REMARK    6  A    between atoms: C_19  and  C_33 
ROOT
ATOM      1  C   UNL d   1       3.549  -5.780  22.508  0.00  0.00    -0.028 A 
ATOM      2  C   UNL d   1       3.404  -6.716  22.189  0.00  0.00     0.007 A 
ATOM      3  C   UNL d   1       3.636  -7.530  22.797  0.00  0.00    -0.033 A 
ATOM      4  C   UNL d   1       3.322  -5.009  21.913  0.00  0.00    -0.013 A 
ATOM      5  C   UNL d   1       4.022  -7.366  23.749  0.00  0.00     0.007 A 
ATOM      6  C   UNL d   1       3.934  -5.592  23.456  0.00  0.00     0.011 A 
ATOM      7  C   UNL d   1       2.951  -5.174  20.999  0.00  0.00    -0.069 A 
ATOM      8  C   UNL d   1       4.173  -6.390  24.082  0.00  0.00     0.007 A 
ATOM      9  C   UNL d   1       4.271  -8.198  24.401  0.00  0.00     0.010 A 
ATOM     10  C   UNL d   1       2.710  -4.381  20.368  0.00  0.00     0.038 A 
ATOM     11  C   UNL d   1       3.033  -6.882  21.275  0.00  0.00     0.033 A 
ATOM     12  C   UNL d   1       3.470  -8.537  22.429  0.00  0.00     0.044 A 
ATOM     13  C   UNL d   1       3.478  -4.039  22.259  0.00  0.00     0.016 A 
ATOM     14  C   UNL d   1       2.858  -3.402  20.693  0.00  0.00     0.053 A 
ATOM     15  C   UNL d   1       3.803  -5.019  23.105  0.00  0.00     0.016 C 
ATOM     16  C   UNL d   1       3.245  -3.230  21.646  0.00  0.00     0.022 A 
ATOM     17  C   UNL d   1       4.114  -9.213  24.055  0.00  0.00     0.157 A 
ATOM     18  C   UNL d   1       2.806  -6.111  20.680  0.00  0.00    -0.022 A 
ATOM     19  C   UNL d   1       3.711  -9.385  23.063  0.00  0.00     0.148 A 
ATOM     20  C   UNL d   1       3.264  -7.687  21.882  0.00  0.00     0.016 C 
ATOM     21  C   UNL d   1       3.655  -4.516  22.717  0.00  0.00     0.021 C 
ATOM     22  C   UNL d   1       2.309  -4.585  19.382  0.00  0.00    -0.005 A 
ATOM     23  C   UNL d   1       2.615  -2.560  20.054  0.00  0.00     0.021 A 
ATOM     24  C   UNL d   1       2.058  -3.759  18.724  0.00  0.00    -0.014 A 
ATOM     25  C   UNL d   1       4.568  -7.558  25.110  0.00  0.00     0.020 C 
ATOM     26  C   UNL d   1       2.212  -2.739  19.063  0.00  0.00     0.006 A 
ATOM     27  C   UNL d   1       2.171  -5.529  19.079  0.00  0.00     0.011 C 
ATOM     28  C   UNL d   1       1.688  -3.936  17.813  0.00  0.00     0.010 C 
ENDROOT
BRANCH   9  29
ATOM     29  C   UNL d   1       4.616  -8.543  25.273  0.00  0.00     0.176 C 
BRANCH  29  30
ATOM     30  O   UNL d   1       4.687  -7.932  26.061  0.00  0.00    -0.400 OA
ATOM     31  H   UNL d   1       5.191  -7.950  26.423  0.00  0.00     0.209 HD
ENDBRANCH  29  30
ENDBRANCH   9  29
BRANCH  17  32
ATOM     32  O   UNL d   1       4.339  -9.987  24.647  0.00  0.00    -0.392 OA
ATOM     33  H   UNL d   1       4.454  -9.895  25.249  0.00  0.00     0.210 HD
ENDBRANCH  17  32
BRANCH  19  34
ATOM     34  O   UNL d   1       3.563 -10.317  22.733  0.00  0.00    -0.393 OA
ATOM     35  H   UNL d   1       2.986 -10.542  22.688  0.00  0.00     0.210 HD
ENDBRANCH  19  34
BRANCH  14  36
ATOM     36  C   UNL d   1       3.000  -2.463  21.005  0.00  0.00     0.149 C 
ATOM     37  O   UNL d   1       2.277  -1.990  21.510  0.00  0.00    -0.649 OA
BRANCH  36  38
ATOM     38  O   UNL d   1       3.862  -1.996  20.813  0.00  0.00    -0.776 OA
ATOM     39  H   UNL d   1       4.337  -2.311  20.569  0.00  0.00     0.167 HD
ENDBRANCH  36  38
ENDBRANCH  14  36
TORSDOF 6
ENDMDL
MODEL 3
REMARK VINA RESULT:   -12.659     29.351     30.520
REMARK INTER + INTRA:         -14.309
REMARK INTER:                 -15.624
REMARK INTRA:                   1.315
REMARK UNBOUND:                 1.310
REMARK  6 active torsions:
REMARK  status: ('A' for Active; 'I' for Inactive)
REMARK    1  A    between atoms: C_22  and  O_1 
REMARK    2  A    between atoms: C_24  and  O_2 
REMARK    3  A    between atoms: O_3  and  C_30 
REMARK    4  A    between atoms: O_4  and  C_33 
REMARK    5  A    between atoms: C_14  and  C_30 
REMARK    6  A    between atoms: C_19  and  C_33 
ROOT
ATOM      1  C   UNL d   1      14.275   2.890  -9.304  0.00  0.00    -0.028 A 
ATOM      2  C   UNL d   1      14.052   2.038  -8.831  0.00  0.00     0.007 A 
ATOM      3  C   UNL d   1      13.086   1.650  -8.857  0.00  0.00    -0.033 A 
ATOM      4  C   UNL d   1      15.207   3.251  -9.271  0.00  0.00    -0.013 A 
ATOM      5  C   UNL d   1      12.342   2.156  -9.381  0.00  0.00     0.007 A 
ATOM      6  C   UNL d   1      13.548   3.413  -9.834  0.00  0.00     0.011 A 
ATOM      7  C   UNL d   1      15.916   2.759  -8.765  0.00  0.00    -0.069 A 
ATOM      8  C   UNL d   1      12.575   3.044  -9.873  0.00  0.00     0.007 A 
ATOM      9  C   UNL d   1      11.328   1.771  -9.421  0.00  0.00     0.010 A 
ATOM     10  C   UNL d   1      16.892   3.122  -8.722  0.00  0.00     0.038 A 
ATOM     11  C   UNL d   1      14.761   1.546  -8.326  0.00  0.00     0.033 A 
ATOM     12  C   UNL d   1      12.867   0.723  -8.336  0.00  0.00     0.044 A 
ATOM     13  C   UNL d   1      15.424   4.140  -9.768  0.00  0.00     0.016 A 
ATOM     14  C   UNL d   1      17.131   4.010  -9.212  0.00  0.00     0.053 A 
ATOM     15  C   UNL d   1      14.161   3.717  -9.854  0.00  0.00     0.016 C 
ATOM     16  C   UNL d   1      16.393   4.522  -9.738  0.00  0.00     0.022 A 
ATOM     17  C   UNL d   1      11.086   0.846  -8.909  0.00  0.00     0.157 A 
ATOM     18  C   UNL d   1      15.693   1.907  -8.293  0.00  0.00    -0.022 A 
ATOM     19  C   UNL d   1      11.861   0.318  -8.362  0.00  0.00     0.148 A 
ATOM     20  C   UNL d   1      13.800   1.163  -8.353  0.00  0.00     0.016 C 
ATOM     21  C   UNL d   1      14.769   3.953  -9.833  0.00  0.00     0.021 C 
ATOM     22  C   UNL d   1      17.643   2.572  -8.167  0.00  0.00    -0.005 A 
ATOM     23  C   UNL d   1      18.140   4.408  -9.181  0.00  0.00     0.021 A 
ATOM     24  C   UNL d   1      18.659   2.950  -8.122  0.00  0.00    -0.014 A 
ATOM     25  C   UNL d   1      11.052   2.549  -9.986  0.00  0.00     0.020 C 
ATOM     26  C   UNL d   1      18.909   3.875  -8.632  0.00  0.00     0.006 A 
ATOM     27  C   UNL d   1      17.402   1.720  -7.700  0.00  0.00     0.011 C 
ATOM     28  C   UNL d   1      19.360   2.450  -7.613  0.00  0.00     0.010 C 
ENDROOT
BRANCH   9  29
ATOM     29  C   UNL d   1      10.382   1.850  -9.734  0.00  0.00     0.176 C 
BRANCH  29  30
ATOM     30  O   UNL d   1      10.125   2.575 -10.373  0.00  0.00    -0.400 OA
ATOM     31  H   UNL d   1       9.538   2.625 -10.565  0.00  0.00     0.209 HD
ENDBRANCH  29  30
ENDBRANCH   9  29
BRANCH  17  32
ATOM     32  O   UNL d   1      10.155   0.482  -8.939  0.00  0.00    -0.392 OA
ATOM     33  H   UNL d   1       9.712   0.735  -8.587  0.00  0.00     0.210 HD
ENDBRANCH  17  32
BRANCH  19  34
ATOM     34  O   UNL d   1      11.648  -0.535  -7.886  0.00  0.00    -0.393 OA
ATOM     35  H   UNL d   1      11.337  -0.522  -7.350  0.00  0.00     0.210 HD
ENDBRANCH  19  34
BRANCH  14  36
ATOM     36  C   UNL d   1      17.362   4.862  -9.682  0.00  0.00     0.149 C 
ATOM     37  O   UNL d   1      17.219   5.739  -9.224  0.00  0.00    -0.649 OA
BRANCH  36  38
ATOM     38  O   UNL d   1      17.735   4.837 -10.609  0.00  0.00    -0.776 OA
ATOM     39  H   UNL d   1      18.191   5.225 -10.770  0.00  0.00     0.167 HD
ENDBRANCH  36  38
ENDBRANCH  14  36
TORSDOF 6
ENDMDL
MODEL 4
REMARK VINA RESULT:   -12.488      1.123      2.551
REMARK INTER + INTRA:         -14.098
REMARK INTER:                 -15.439
REMARK INTRA:                   1.341
REMARK UNBOUND:                 1.310
REMARK  6 active torsions:
REMARK  status: ('A' for Active; 'I' for Inactive)
REMARK    1  A    between atoms: C_22  and  O_1 
REMARK    2  A    between atoms: C_24  and  O_2 
REMARK    3  A    between atoms: O_3  and  C_30 
REMARK    4  A    between atoms: O_4  and  C_33 
REMARK    5  A    between atoms: C_14  and  C_30 
REMARK    6  A    between atoms: C_19  and  C_33 
ROOT
ATOM      1  C   UNL d   1       3.730 -16.061  11.294  0.00  0.00    -0.028 A 
ATOM      2  C   UNL d   1       2.831 -15.957  11.721  0.00  0.00     0.007 A 
ATOM      3  C   UNL d   1       2.636 -15.165  12.368  0.00  0.00    -0.033 A 
ATOM      4  C   UNL d   1       3.903 -16.827  10.675  0.00  0.00    -0.013 A 
ATOM      5  C   UNL d   1       3.385 -14.472  12.573  0.00  0.00     0.007 A 
ATOM      6  C   UNL d   1       4.494 -15.381  11.485  0.00  0.00     0.011 A 
ATOM      7  C   UNL d   1       3.178 -17.489  10.482  0.00  0.00    -0.069 A 
ATOM      8  C   UNL d   1       4.321 -14.581  12.129  0.00  0.00     0.007 A 
ATOM      9  C   UNL d   1       3.205 -13.638  13.244  0.00  0.00     0.010 A 
ATOM     10  C   UNL d   1       3.344 -18.292   9.839  0.00  0.00     0.038 A 
ATOM     11  C   UNL d   1       2.106 -16.619  11.528  0.00  0.00     0.033 A 
ATOM     12  C   UNL d   1       1.653 -15.072  12.819  0.00  0.00     0.044 A 
ATOM     13  C   UNL d   1       4.844 -16.922  10.238  0.00  0.00     0.016 A 
ATOM     14  C   UNL d   1       4.277 -18.407   9.391  0.00  0.00     0.053 A 
ATOM     15  C   UNL d   1       4.683 -15.878  11.053  0.00  0.00     0.016 C 
ATOM     16  C   UNL d   1       5.032 -17.718   9.592  0.00  0.00     0.022 A 
ATOM     17  C   UNL d   1       2.231 -13.525  13.707  0.00  0.00     0.157 A 
ATOM     18  C   UNL d   1       2.280 -17.384  10.909  0.00  0.00    -0.022 A 
ATOM     19  C   UNL d   1       1.449 -14.246  13.493  0.00  0.00     0.148 A 
ATOM     20  C   UNL d   1       1.916 -15.830  12.171  0.00  0.00     0.016 C 
ATOM     21  C   UNL d   1       4.796 -16.377  10.649  0.00  0.00     0.021 C 
ATOM     22  C   UNL d   1       2.542 -18.996   9.646  0.00  0.00    -0.005 A 
ATOM     23  C   UNL d   1       4.473 -19.235   8.718  0.00  0.00     0.021 A 
ATOM     24  C   UNL d   1       2.715 -19.832   8.976  0.00  0.00    -0.014 A 
ATOM     25  C   UNL d   1       4.143 -13.320  13.106  0.00  0.00     0.020 C 
ATOM     26  C   UNL d   1       3.687 -19.952   8.509  0.00  0.00     0.006 A 
ATOM     27  C   UNL d   1       1.649 -18.876  10.081  0.00  0.00     0.011 C 
ATOM     28  C   UNL d   1       1.982 -20.488   8.791  0.00  0.00     0.010 C 
ENDROOT
BRANCH   9  29
ATOM     29  C   UNL d   1       3.527 -12.815  13.711  0.00  0.00     0.176 C 
BRANCH  29  30
ATOM     30  O   UNL d   1       4.450 -12.785  14.094  0.00  0.00    -0.400 OA
ATOM     31  H   UNL d   1       4.644 -12.281  14.398  0.00  0.00     0.209 HD
ENDBRANCH  29  30
ENDBRANCH   9  29
BRANCH  17  32
ATOM     32  O   UNL d   1       2.053 -12.761  14.327  0.00  0.00    -0.392 OA
ATOM     33  H   UNL d   1       2.524 -12.418  14.540  0.00  0.00     0.210 HD
ENDBRANCH  17  32
BRANCH  19  34
ATOM     34  O   UNL d   1       0.547 -14.152  13.914  0.00  0.00    -0.393 OA
ATOM     35  H   UNL d   1       0.380 -14.528  14.378  0.00  0.00     0.210 HD
ENDBRANCH  19  34
BRANCH  14  36
ATOM     36  C   UNL d   1       5.173 -18.518   8.961  0.00  0.00     0.149 C 
ATOM     37  O   UNL d   1       5.344 -18.126   8.057  0.00  0.00    -0.649 OA
BRANCH  36  38
ATOM     38  O   UNL d   1       5.896 -19.020   9.433  0.00  0.00    -0.776 OA
ATOM     39  H   UNL d   1       6.021 -18.897  10.028  0.00  0.00     0.167 HD
ENDBRANCH  36  38
ENDBRANCH  14  36
TORSDOF 6
ENDMDL
MODEL 5
REMARK VINA RESULT:   -12.466     33.599     34.968
REMARK INTER + INTRA:         -14.072
REMARK INTER:                 -15.400
REMARK INTRA:                   1.328
REMARK UNBOUND:                 1.310
REMARK  6 active torsions:
REMARK  status: ('A' for Active; 'I' for Inactive)
REMARK    1  A    between atoms: C_22  and  O_1 
REMARK    2  A    between atoms: C_24  and  O_2 
REMARK    3  A    between atoms: O_3  and  C_30 
REMARK    4  A    between atoms: O_4  and  C_33 
REMARK    5  A    between atoms: C_14  and  C_30 
REMARK    6  A    between atoms: C_19  and  C_33 
ROOT
ATOM      1  C   UNL d   1      -3.705  17.256  11.169  0.00  0.00    -0.028 A 
ATOM      2  C   UNL d   1      -3.322  17.212  10.246  0.00  0.00     0.007 A 
ATOM      3  C   UNL d   1      -2.298  17.091  10.097  0.00  0.00    -0.033 A 
ATOM      4  C   UNL d   1      -4.690  17.372  11.297  0.00  0.00    -0.013 A 
ATOM      5  C   UNL d   1      -1.665  17.015  10.920  0.00  0.00     0.007 A 
ATOM      6  C   UNL d   1      -3.090  17.182  12.006  0.00  0.00     0.011 A 
ATOM      7  C   UNL d   1      -5.292  17.445  10.502  0.00  0.00    -0.069 A 
ATOM      8  C   UNL d   1      -2.063  17.061  11.881  0.00  0.00     0.007 A 
ATOM      9  C   UNL d   1      -0.595  16.888  10.790  0.00  0.00     0.010 A 
ATOM     10  C   UNL d   1      -6.320  17.566  10.619  0.00  0.00     0.038 A 
ATOM     11  C   UNL d   1      -3.924  17.284   9.451  0.00  0.00     0.033 A 
ATOM     12  C   UNL d   1      -1.906  17.045   9.087  0.00  0.00     0.044 A 
ATOM     13  C   UNL d   1      -5.073  17.417  12.264  0.00  0.00     0.016 A 
ATOM     14  C   UNL d   1      -6.726  17.613  11.577  0.00  0.00     0.053 A 
ATOM     15  C   UNL d   1      -3.751  17.260  12.168  0.00  0.00     0.016 C 
ATOM     16  C   UNL d   1      -6.098  17.538  12.405  0.00  0.00     0.022 A 
ATOM     17  C   UNL d   1      -0.180  16.840   9.789  0.00  0.00     0.157 A 
ATOM     18  C   UNL d   1      -4.909  17.401   9.579  0.00  0.00    -0.022 A 
ATOM     19  C   UNL d   1      -0.839  16.919   8.931  0.00  0.00     0.148 A 
ATOM     20  C   UNL d   1      -2.907  17.164   9.307  0.00  0.00     0.016 C 
ATOM     21  C   UNL d   1      -4.394  17.336  12.251  0.00  0.00     0.021 C 
ATOM     22  C   UNL d   1      -6.953  17.642   9.742  0.00  0.00    -0.005 A 
ATOM     23  C   UNL d   1      -7.793  17.739  11.724  0.00  0.00     0.021 A 
ATOM     24  C   UNL d   1      -8.024  17.769   9.863  0.00  0.00    -0.014 A 
ATOM     25  C   UNL d   1      -0.472  16.872  11.782  0.00  0.00     0.020 C 
ATOM     26  C   UNL d   1      -8.447  17.818  10.861  0.00  0.00     0.006 A 
ATOM     27  C   UNL d   1      -6.553  17.596   8.825  0.00  0.00     0.011 C 
ATOM     28  C   UNL d   1      -8.616  17.840   9.061  0.00  0.00     0.010 C 
ENDROOT
BRANCH   9  29
ATOM     29  C   UNL d   1       0.320  16.779  11.179  0.00  0.00     0.176 C 
BRANCH  29  30
ATOM     30  O   UNL d   1       0.477  16.969  12.148  0.00  0.00    -0.400 OA
ATOM     31  H   UNL d   1       0.841  17.442  12.316  0.00  0.00     0.209 HD
ENDBRANCH  29  30
ENDBRANCH   9  29
BRANCH  17  32
ATOM     32  O   UNL d   1       0.804  16.724   9.657  0.00  0.00    -0.392 OA
ATOM     33  H   UNL d   1       1.039  16.689   9.084  0.00  0.00     0.210 HD
ENDBRANCH  17  32
BRANCH  19  34
ATOM     34  O   UNL d   1      -0.467  16.876   8.004  0.00  0.00    -0.393 OA
ATOM     35  H   UNL d   1       0.116  16.688   7.913  0.00  0.00     0.210 HD
ENDBRANCH  19  34
BRANCH  14  36
ATOM     36  C   UNL d   1      -7.116  17.658  12.496  0.00  0.00     0.149 C 
ATOM     37  O   UNL d   1      -7.296  18.546  12.919  0.00  0.00    -0.649 OA
BRANCH  36  38
ATOM     38  O   UNL d   1      -7.325  16.816  12.993  0.00  0.00    -0.776 OA
ATOM     39  H   UNL d   1      -7.350  16.276  12.690  0.00  0.00     0.167 HD
ENDBRANCH  36  38
ENDBRANCH  14  36
TORSDOF 6
ENDMDL
