MODEL 1
REMARK VINA RESULT:   -10.087      0.000      0.000
REMARK INTER + INTRA:          -5.149
REMARK INTER:                 -14.158
REMARK INTRA:                   9.009
REMARK UNBOUND:                 8.477
REMARK  9 active torsions:
REMARK  status: ('A' for Active; 'I' for Inactive)
REMARK    1  A    between atoms: O_3  and  C_17 
REMARK    2  A    between atoms: O_4  and  C_18 
REMARK    3  A    between atoms: O_5  and  C_19 
REMARK    4  A    between atoms: O_7  and  C_32 
REMARK    5  A    between atoms: O_9  and  C_36 
REMARK    6  A    between atoms: O_10  and  C_40 
REMARK    7  A    between atoms: C_11  and  C_13 
REMARK    8  A    between atoms: C_15  and  C_20 
REMARK    9  A    between atoms: C_22  and  C_29 
ROOT
ATOM      1  O   UNL d   1      37.295  47.173  -9.702  0.00  0.00    -0.308 OA
ATOM      2  O   UNL d   1      37.694  48.088 -12.604  0.00  0.00    -0.287 OA
ATOM      3  C   UNL d   1      35.609  47.665  -9.823  0.00  0.00     0.045 A 
ATOM      4  C   UNL d   1      36.508  47.576 -10.252  0.00  0.00     0.107 A 
ATOM      5  C   UNL d   1      36.642  47.873 -11.198  0.00  0.00     0.082 A 
ATOM      6  C   UNL d   1      34.844  48.050 -10.339  0.00  0.00     0.082 A 
ATOM      7  C   UNL d   1      35.877  48.259 -11.714  0.00  0.00     0.085 A 
ATOM      8  C   UNL d   1      34.978  48.347 -11.284  0.00  0.00     0.075 A 
ATOM      9  C   UNL d   1      38.234  47.078 -10.143  0.00  0.00     0.090 A 
ATOM     10  C   UNL d   1      37.572  47.787 -11.658  0.00  0.00     0.190 A 
ATOM     11  C   UNL d   1      38.374  47.387 -11.128  0.00  0.00     0.094 A 
ENDROOT
BRANCH   3  12
ATOM     12  C   UNL d   1      35.476  47.368  -8.878  0.00  0.00     0.014 A 
ATOM     13  C   UNL d   1      35.156  46.440  -8.685  0.00  0.00     0.029 A 
ATOM     14  C   UNL d   1      35.022  46.143  -7.740  0.00  0.00    -0.001 A 
ATOM     15  C   UNL d   1      35.208  46.774  -6.987  0.00  0.00     0.017 A 
ATOM     16  C   UNL d   1      35.528  47.701  -7.179  0.00  0.00     0.038 A 
ATOM     17  C   UNL d   1      35.662  47.998  -8.124  0.00  0.00     0.076 A 
BRANCH  14  18
ATOM     18  C   UNL d   1      34.702  45.215  -7.548  0.00  0.00     0.090 A 
ATOM     19  O   UNL d   1      34.155  44.724  -8.226  0.00  0.00    -0.309 OA
ATOM     20  C   UNL d   1      33.836  43.796  -8.034  0.00  0.00     0.095 A 
ATOM     21  C   UNL d   1      34.063  43.360  -7.163  0.00  0.00     0.081 A 
ATOM     22  C   UNL d   1      33.267  43.297  -8.750  0.00  0.00     0.075 A 
ATOM     23  C   UNL d   1      34.610  43.850  -6.485  0.00  0.00     0.190 A 
ATOM     24  C   UNL d   1      33.737  42.394  -6.949  0.00  0.00     0.085 A 
ATOM     25  O   UNL d   1      34.837  43.414  -5.615  0.00  0.00    -0.287 OA
ATOM     26  C   UNL d   1      34.929  44.778  -6.677  0.00  0.00     0.094 A 
ATOM     27  C   UNL d   1      33.166  41.876  -7.651  0.00  0.00     0.074 A 
ATOM     28  C   UNL d   1      32.930  42.331  -8.557  0.00  0.00     0.071 A 
BRANCH  24  29
ATOM     29  O   UNL d   1      33.970  41.967  -6.075  0.00  0.00    -0.360 OA
ATOM     30  H   UNL d   1      34.558  41.964  -5.878  0.00  0.00     0.217 HD
ENDBRANCH  24  29
BRANCH  28  31
ATOM     31  O   UNL d   1      32.383  41.843  -9.238  0.00  0.00    -0.361 OA
ATOM     32  H   UNL d   1      32.058  41.341  -9.073  0.00  0.00     0.217 HD
ENDBRANCH  28  31
ENDBRANCH  14  18
BRANCH  17  33
ATOM     33  O   UNL d   1      35.982  48.926  -8.316  0.00  0.00    -0.360 OA
ATOM     34  H   UNL d   1      36.202  49.068  -8.878  0.00  0.00     0.217 HD
ENDBRANCH  17  33
ENDBRANCH   3  12
BRANCH   6  35
ATOM     35  O   UNL d   1      33.946  48.138  -9.909  0.00  0.00    -0.360 OA
ATOM     36  H   UNL d   1      33.843  47.890  -9.351  0.00  0.00     0.217 HD
ENDBRANCH   6  35
BRANCH   9  37
ATOM     37  C   UNL d   1      38.997  46.692  -9.623  0.00  0.00    -0.002 A 
ATOM     38  C   UNL d   1      38.842  45.916  -9.011  0.00  0.00     0.017 A 
ATOM     39  C   UNL d   1      39.604  45.530  -8.491  0.00  0.00     0.037 A 
ATOM     40  C   UNL d   1      40.520  45.919  -8.584  0.00  0.00     0.065 A 
ATOM     41  C   UNL d   1      40.675  46.694  -9.196  0.00  0.00     0.037 A 
ATOM     42  C   UNL d   1      39.912  47.080  -9.716  0.00  0.00     0.017 A 
BRANCH  40  43
ATOM     43  O   UNL d   1      41.283  45.533  -8.064  0.00  0.00    -0.361 OA
ATOM     44  H   UNL d   1      41.810  45.854  -8.001  0.00  0.00     0.217 HD
ENDBRANCH  40  43
ENDBRANCH   9  37
BRANCH   7  45
ATOM     45  O   UNL d   1      36.010  48.556 -12.659  0.00  0.00    -0.360 OA
ATOM     46  H   UNL d   1      35.528  48.756 -12.993  0.00  0.00     0.217 HD
ENDBRANCH   7  45
TORSDOF 9
ENDMDL
MODEL 2
REMARK VINA RESULT:    -9.239      1.329      3.579
REMARK INTER + INTRA:          -4.003
REMARK INTER:                 -12.801
REMARK INTRA:                   8.799
REMARK UNBOUND:                 8.477
REMARK  9 active torsions:
REMARK  status: ('A' for Active; 'I' for Inactive)
REMARK    1  A    between atoms: O_3  and  C_17 
REMARK    2  A    between atoms: O_4  and  C_18 
REMARK    3  A    between atoms: O_5  and  C_19 
REMARK    4  A    between atoms: O_7  and  C_32 
REMARK    5  A    between atoms: O_9  and  C_36 
REMARK    6  A    between atoms: O_10  and  C_40 
REMARK    7  A    between atoms: C_11  and  C_13 
REMARK    8  A    between atoms: C_15  and  C_20 
REMARK    9  A    between atoms: C_22  and  C_29 
ROOT
ATOM      1  O   UNL d   1      36.812  47.798  -9.066  0.00  0.00    -0.308 OA
ATOM      2  O   UNL d   1      39.364  48.252 -10.709  0.00  0.00    -0.287 OA
ATOM      3  C   UNL d   1      37.818  47.230  -7.738  0.00  0.00     0.045 A 
ATOM      4  C   UNL d   1      37.752  47.587  -8.670  0.00  0.00     0.107 A 
ATOM      5  C   UNL d   1      38.582  47.736  -9.208  0.00  0.00     0.082 A 
ATOM      6  C   UNL d   1      38.714  47.022  -7.345  0.00  0.00     0.082 A 
ATOM      7  C   UNL d   1      39.477  47.528  -8.815  0.00  0.00     0.085 A 
ATOM      8  C   UNL d   1      39.543  47.171  -7.883  0.00  0.00     0.075 A 
ATOM      9  C   UNL d   1      36.735  48.170 -10.036  0.00  0.00     0.090 A 
ATOM     10  C   UNL d   1      38.528  48.107 -10.180  0.00  0.00     0.190 A 
ATOM     11  C   UNL d   1      37.599  48.326 -10.597  0.00  0.00     0.094 A 
ENDROOT
BRANCH   3  12
ATOM     12  C   UNL d   1      36.989  47.081  -7.200  0.00  0.00     0.014 A 
ATOM     13  C   UNL d   1      36.525  46.195  -7.230  0.00  0.00     0.029 A 
ATOM     14  C   UNL d   1      35.696  46.046  -6.692  0.00  0.00    -0.001 A 
ATOM     15  C   UNL d   1      35.330  46.783  -6.123  0.00  0.00     0.017 A 
ATOM     16  C   UNL d   1      35.794  47.668  -6.092  0.00  0.00     0.038 A 
ATOM     17  C   UNL d   1      36.623  47.817  -6.631  0.00  0.00     0.076 A 
BRANCH  14  18
ATOM     18  C   UNL d   1      35.232  45.161  -6.722  0.00  0.00     0.090 A 
ATOM     19  O   UNL d   1      34.623  44.942  -7.484  0.00  0.00    -0.309 OA
ATOM     20  C   UNL d   1      34.159  44.056  -7.515  0.00  0.00     0.095 A 
ATOM     21  C   UNL d   1      34.305  43.390  -6.783  0.00  0.00     0.081 A 
ATOM     22  C   UNL d   1      33.527  43.842  -8.315  0.00  0.00     0.075 A 
ATOM     23  C   UNL d   1      34.915  43.609  -6.022  0.00  0.00     0.190 A 
ATOM     24  C   UNL d   1      33.829  42.463  -6.802  0.00  0.00     0.085 A 
ATOM     25  O   UNL d   1      35.061  42.942  -5.291  0.00  0.00    -0.287 OA
ATOM     26  C   UNL d   1      35.379  44.494  -5.991  0.00  0.00     0.094 A 
ATOM     27  C   UNL d   1      33.193  42.228  -7.592  0.00  0.00     0.074 A 
ATOM     28  C   UNL d   1      33.040  42.922  -8.354  0.00  0.00     0.071 A 
BRANCH  24  29
ATOM     29  O   UNL d   1      33.983  41.804  -6.065  0.00  0.00    -0.360 OA
ATOM     30  H   UNL d   1      34.516  41.488  -6.038  0.00  0.00     0.217 HD
ENDBRANCH  24  29
BRANCH  28  31
ATOM     31  O   UNL d   1      32.431  42.706  -9.117  0.00  0.00    -0.361 OA
ATOM     32  H   UNL d   1      32.371  43.105  -9.588  0.00  0.00     0.217 HD
ENDBRANCH  28  31
ENDBRANCH  14  18
BRANCH  17  33
ATOM     33  O   UNL d   1      37.087  48.703  -6.600  0.00  0.00    -0.360 OA
ATOM     34  H   UNL d   1      37.344  48.900  -6.071  0.00  0.00     0.217 HD
ENDBRANCH  17  33
ENDBRANCH   3  12
BRANCH   6  35
ATOM     35  O   UNL d   1      38.780  46.665  -6.413  0.00  0.00    -0.360 OA
ATOM     36  H   UNL d   1      39.216  46.881  -6.028  0.00  0.00     0.217 HD
ENDBRANCH   6  35
BRANCH   9  37
ATOM     37  C   UNL d   1      35.837  48.377 -10.425  0.00  0.00    -0.002 A 
ATOM     38  C   UNL d   1      35.748  48.557 -11.405  0.00  0.00     0.017 A 
ATOM     39  C   UNL d   1      34.851  48.764 -11.795  0.00  0.00     0.037 A 
ATOM     40  C   UNL d   1      34.043  48.790 -11.206  0.00  0.00     0.065 A 
ATOM     41  C   UNL d   1      34.133  48.610 -10.226  0.00  0.00     0.037 A 
ATOM     42  C   UNL d   1      35.031  48.403  -9.836  0.00  0.00     0.017 A 
BRANCH  40  43
ATOM     43  O   UNL d   1      33.146  48.997 -11.595  0.00  0.00    -0.361 OA
ATOM     44  H   UNL d   1      32.907  49.567 -11.540  0.00  0.00     0.217 HD
ENDBRANCH  40  43
ENDBRANCH   9  37
BRANCH   7  45
ATOM     45  O   UNL d   1      40.306  47.677  -9.353  0.00  0.00    -0.360 OA
ATOM     46  H   UNL d   1      40.411  47.338  -9.862  0.00  0.00     0.217 HD
ENDBRANCH   7  45
TORSDOF 9
ENDMDL
MODEL 3
REMARK VINA RESULT:    -9.068     32.484     34.631
REMARK INTER + INTRA:          -3.772
REMARK INTER:                 -12.256
REMARK INTRA:                   8.485
REMARK UNBOUND:                 8.477
REMARK  9 active torsions:
REMARK  status: ('A' for Active; 'I' for Inactive)
REMARK    1  A    between atoms: O_3  and  C_17 
REMARK    2  A    between atoms: O_4  and  C_18 
REMARK    3  A    between atoms: O_5  and  C_19 
REMARK    4  A    between atoms: O_7  and  C_32 
REMARK    5  A    between atoms: O_9  and  C_36 
REMARK    6  A    between atoms: O_10  and  C_40 
REMARK    7  A    between atoms: C_11  and  C_13 
REMARK    8  A    between atoms: C_15  and  C_20 
REMARK    9  A    between atoms: C_22  and  C_29 
ROOT
ATOM      1  O   UNL d   1      24.748  33.524 -39.596  0.00  0.00    -0.308 OA
ATOM      2  O   UNL d   1      24.335  36.564 -39.528  0.00  0.00    -0.287 OA
ATOM      3  C   UNL d   1      26.438  33.804 -40.000  0.00  0.00     0.045 A 
ATOM      4  C   UNL d   1      25.535  34.178 -39.789  0.00  0.00     0.107 A 
ATOM      5  C   UNL d   1      25.396  35.168 -39.766  0.00  0.00     0.082 A 
ATOM      6  C   UNL d   1      27.203  34.421 -40.187  0.00  0.00     0.082 A 
ATOM      7  C   UNL d   1      26.162  35.785 -39.953  0.00  0.00     0.085 A 
ATOM      8  C   UNL d   1      27.065  35.411 -40.163  0.00  0.00     0.075 A 
ATOM      9  C   UNL d   1      23.804  33.906 -39.376  0.00  0.00     0.090 A 
ATOM     10  C   UNL d   1      24.462  35.572 -39.548  0.00  0.00     0.190 A 
ATOM     11  C   UNL d   1      23.660  34.937 -39.352  0.00  0.00     0.094 A 
ENDROOT
BRANCH   3  12
ATOM     12  C   UNL d   1      26.576  32.814 -40.023  0.00  0.00     0.014 A 
ATOM     13  C   UNL d   1      26.874  32.331 -39.199  0.00  0.00     0.029 A 
ATOM     14  C   UNL d   1      27.012  31.341 -39.223  0.00  0.00    -0.001 A 
ATOM     15  C   UNL d   1      26.853  30.834 -40.069  0.00  0.00     0.017 A 
ATOM     16  C   UNL d   1      26.555  31.317 -40.893  0.00  0.00     0.038 A 
ATOM     17  C   UNL d   1      26.417  32.307 -40.870  0.00  0.00     0.076 A 
BRANCH  14  18
ATOM     18  C   UNL d   1      27.310  30.858 -38.399  0.00  0.00     0.090 A 
ATOM     19  O   UNL d   1      26.643  30.613 -37.695  0.00  0.00    -0.309 OA
ATOM     20  C   UNL d   1      26.941  30.130 -36.871  0.00  0.00     0.095 A 
ATOM     21  C   UNL d   1      27.905  29.893 -36.752  0.00  0.00     0.081 A 
ATOM     22  C   UNL d   1      26.235  29.882 -36.146  0.00  0.00     0.075 A 
ATOM     23  C   UNL d   1      28.571  30.138 -37.456  0.00  0.00     0.190 A 
ATOM     24  C   UNL d   1      28.230  29.390 -35.899  0.00  0.00     0.085 A 
ATOM     25  O   UNL d   1      29.535  29.900 -37.336  0.00  0.00    -0.287 OA
ATOM     26  C   UNL d   1      28.274  30.621 -38.279  0.00  0.00     0.094 A 
ATOM     27  C   UNL d   1      27.541  29.131 -35.161  0.00  0.00     0.074 A 
ATOM     28  C   UNL d   1      26.537  29.379 -35.285  0.00  0.00     0.071 A 
BRANCH  24  29
ATOM     29  O   UNL d   1      29.196  29.157 -35.790  0.00  0.00    -0.360 OA
ATOM     30  H   UNL d   1      29.617  29.391 -36.181  0.00  0.00     0.217 HD
ENDBRANCH  24  29
BRANCH  28  31
ATOM     31  O   UNL d   1      25.868  29.135 -34.584  0.00  0.00    -0.361 OA
ATOM     32  H   UNL d   1      26.008  29.205 -33.984  0.00  0.00     0.217 HD
ENDBRANCH  28  31
ENDBRANCH  14  18
BRANCH  17  33
ATOM     33  O   UNL d   1      26.119  32.790 -41.693  0.00  0.00    -0.360 OA
ATOM     34  H   UNL d   1      25.535  32.731 -41.893  0.00  0.00     0.217 HD
ENDBRANCH  17  33
ENDBRANCH   3  12
BRANCH   6  35
ATOM     35  O   UNL d   1      28.106  34.047 -40.397  0.00  0.00    -0.360 OA
ATOM     36  H   UNL d   1      28.617  34.354 -40.225  0.00  0.00     0.217 HD
ENDBRANCH   6  35
BRANCH   9  37
ATOM     37  C   UNL d   1      23.041  33.286 -39.190  0.00  0.00    -0.002 A 
ATOM     38  C   UNL d   1      22.702  33.179 -38.255  0.00  0.00     0.017 A 
ATOM     39  C   UNL d   1      21.940  32.560 -38.068  0.00  0.00     0.037 A 
ATOM     40  C   UNL d   1      21.517  32.047 -38.815  0.00  0.00     0.065 A 
ATOM     41  C   UNL d   1      21.857  32.154 -39.750  0.00  0.00     0.037 A 
ATOM     42  C   UNL d   1      22.619  32.774 -39.937  0.00  0.00     0.017 A 
BRANCH  40  43
ATOM     43  O   UNL d   1      20.755  31.427 -38.629  0.00  0.00    -0.361 OA
ATOM     44  H   UNL d   1      20.211  31.654 -38.433  0.00  0.00     0.217 HD
ENDBRANCH  40  43
ENDBRANCH   9  37
BRANCH   7  45
ATOM     45  O   UNL d   1      26.023  36.775 -39.930  0.00  0.00    -0.360 OA
ATOM     46  H   UNL d   1      26.273  37.112 -39.473  0.00  0.00     0.217 HD
ENDBRANCH   7  45
TORSDOF 9
ENDMDL
MODEL 4
REMARK VINA RESULT:    -8.863     29.923     33.057
REMARK INTER + INTRA:          -3.496
REMARK INTER:                 -12.049
REMARK INTRA:                   8.553
REMARK UNBOUND:                 8.477
REMARK  9 active torsions:
REMARK  status: ('A' for Active; 'I' for Inactive)
REMARK    1  A    between atoms: O_3  and  C_17 
REMARK    2  A    between atoms: O_4  and  C_18 
REMARK    3  A    between atoms: O_5  and  C_19 
REMARK    4  A    between atoms: O_7  and  C_32 
REMARK    5  A    between atoms: O_9  and  C_36 
REMARK    6  A    between atoms: O_10  and  C_40 
REMARK    7  A    between atoms: C_11  and  C_13 
REMARK    8  A    between atoms: C_15  and  C_20 
REMARK    9  A    between atoms: C_22  and  C_29 
ROOT
ATOM      1  O   UNL d   1      35.585  43.041 -40.047  0.00  0.00    -0.308 OA
ATOM      2  O   UNL d   1      33.283  41.495 -38.733  0.00  0.00    -0.287 OA
ATOM      3  C   UNL d   1      34.998  42.498 -41.616  0.00  0.00     0.045 A 
ATOM      4  C   UNL d   1      34.900  42.505 -40.621  0.00  0.00     0.107 A 
ATOM      5  C   UNL d   1      34.151  42.003 -40.189  0.00  0.00     0.082 A 
ATOM      6  C   UNL d   1      34.348  41.988 -42.179  0.00  0.00     0.082 A 
ATOM      7  C   UNL d   1      33.501  41.492 -40.752  0.00  0.00     0.085 A 
ATOM      8  C   UNL d   1      33.600  41.485 -41.747  0.00  0.00     0.075 A 
ATOM      9  C   UNL d   1      35.488  43.054 -39.010  0.00  0.00     0.090 A 
ATOM     10  C   UNL d   1      34.036  42.001 -39.154  0.00  0.00     0.190 A 
ATOM     11  C   UNL d   1      34.708  42.530 -38.560  0.00  0.00     0.094 A 
ENDROOT
BRANCH   3  12
ATOM     12  C   UNL d   1      35.747  43.001 -42.047  0.00  0.00     0.014 A 
ATOM     13  C   UNL d   1      35.627  43.963 -42.294  0.00  0.00     0.029 A 
ATOM     14  C   UNL d   1      36.376  44.465 -42.726  0.00  0.00    -0.001 A 
ATOM     15  C   UNL d   1      37.245  44.007 -42.911  0.00  0.00     0.017 A 
ATOM     16  C   UNL d   1      37.365  43.045 -42.665  0.00  0.00     0.038 A 
ATOM     17  C   UNL d   1      36.616  42.542 -42.233  0.00  0.00     0.076 A 
BRANCH  14  18
ATOM     18  C   UNL d   1      36.255  45.427 -42.973  0.00  0.00     0.090 A 
ATOM     19  O   UNL d   1      35.762  45.671 -43.807  0.00  0.00    -0.309 OA
ATOM     20  C   UNL d   1      35.642  46.633 -44.054  0.00  0.00     0.095 A 
ATOM     21  C   UNL d   1      36.015  47.350 -43.466  0.00  0.00     0.081 A 
ATOM     22  C   UNL d   1      35.126  46.872 -44.927  0.00  0.00     0.075 A 
ATOM     23  C   UNL d   1      36.508  47.106 -42.631  0.00  0.00     0.190 A 
ATOM     24  C   UNL d   1      35.898  48.356 -43.709  0.00  0.00     0.085 A 
ATOM     25  O   UNL d   1      36.881  47.823 -42.043  0.00  0.00    -0.287 OA
ATOM     26  C   UNL d   1      36.628  46.144 -42.384  0.00  0.00     0.094 A 
ATOM     27  C   UNL d   1      35.385  48.618 -44.578  0.00  0.00     0.074 A 
ATOM     28  C   UNL d   1      34.996  47.871 -45.191  0.00  0.00     0.071 A 
BRANCH  24  29
ATOM     29  O   UNL d   1      36.275  49.065 -43.114  0.00  0.00    -0.360 OA
ATOM     30  H   UNL d   1      35.904  49.507 -42.884  0.00  0.00     0.217 HD
ENDBRANCH  24  29
BRANCH  28  31
ATOM     31  O   UNL d   1      34.502  48.111 -46.026  0.00  0.00    -0.361 OA
ATOM     32  H   UNL d   1      34.081  47.721 -46.260  0.00  0.00     0.217 HD
ENDBRANCH  28  31
ENDBRANCH  14  18
BRANCH  17  33
ATOM     33  O   UNL d   1      36.736  41.581 -41.986  0.00  0.00    -0.360 OA
ATOM     34  H   UNL d   1      36.299  41.288 -41.658  0.00  0.00     0.217 HD
ENDBRANCH  17  33
ENDBRANCH   3  12
BRANCH   6  35
ATOM     35  O   UNL d   1      34.447  41.981 -43.174  0.00  0.00    -0.360 OA
ATOM     36  H   UNL d   1      34.546  42.511 -43.479  0.00  0.00     0.217 HD
ENDBRANCH   6  35
BRANCH   9  37
ATOM     37  C   UNL d   1      36.141  43.565 -38.450  0.00  0.00    -0.002 A 
ATOM     38  C   UNL d   1      35.828  44.340 -37.901  0.00  0.00     0.017 A 
ATOM     39  C   UNL d   1      36.479  44.852 -37.342  0.00  0.00     0.037 A 
ATOM     40  C   UNL d   1      37.444  44.589 -37.331  0.00  0.00     0.065 A 
ATOM     41  C   UNL d   1      37.757  43.814 -37.880  0.00  0.00     0.037 A 
ATOM     42  C   UNL d   1      37.105  43.302 -38.440  0.00  0.00     0.017 A 
BRANCH  40  43
ATOM     43  O   UNL d   1      38.096  45.100 -36.772  0.00  0.00    -0.361 OA
ATOM     44  H   UNL d   1      38.314  44.853 -36.245  0.00  0.00     0.217 HD
ENDBRANCH  40  43
ENDBRANCH   9  37
BRANCH   7  45
ATOM     45  O   UNL d   1      32.752  40.990 -40.320  0.00  0.00    -0.360 OA
ATOM     46  H   UNL d   1      32.263  40.813 -40.657  0.00  0.00     0.217 HD
ENDBRANCH   7  45
TORSDOF 9
ENDMDL
MODEL 5
REMARK VINA RESULT:    -8.624     19.290     22.683
REMARK INTER + INTRA:          -3.173
REMARK INTER:                 -11.904
REMARK INTRA:                   8.731
REMARK UNBOUND:                 8.477
REMARK  9 active torsions:
REMARK  status: ('A' for Active; 'I' for Inactive)
REMARK    1  A    between atoms: O_3  and  C_17 
REMARK    2  A    between atoms: O_4  and  C_18 
REMARK    3  A    between atoms: O_5  and  C_19 
REMARK    4  A    between atoms: O_7  and  C_32 
REMARK    5  A    between atoms: O_9  and  C_36 
REMARK    6  A    between atoms: O_10  and  C_40 
REMARK    7  A    between atoms: C_11  and  C_13 
REMARK    8  A    between atoms: C_15  and  C_20 
REMARK    9  A    between atoms: C_22  and  C_29 
ROOT
ATOM      1  O   UNL d   1      17.163  43.118   0.362  0.00  0.00    -0.308 OA
ATOM      2  O   UNL d   1      16.464  46.027  -0.320  0.00  0.00    -0.287 OA
ATOM      3  C   UNL d   1      15.521  42.663  -0.082  0.00  0.00     0.045 A 
ATOM      4  C   UNL d   1      16.213  43.378   0.022  0.00  0.00     0.107 A 
ATOM      5  C   UNL d   1      15.989  44.327  -0.199  0.00  0.00     0.082 A 
ATOM      6  C   UNL d   1      14.605  42.898  -0.408  0.00  0.00     0.082 A 
ATOM      7  C   UNL d   1      15.073  44.562  -0.525  0.00  0.00     0.085 A 
ATOM      8  C   UNL d   1      14.381  43.847  -0.629  0.00  0.00     0.075 A 
ATOM      9  C   UNL d   1      17.888  43.856   0.473  0.00  0.00     0.090 A 
ATOM     10  C   UNL d   1      16.699  45.081  -0.095  0.00  0.00     0.190 A 
ATOM     11  C   UNL d   1      17.655  44.845   0.243  0.00  0.00     0.094 A 
ENDROOT
BRANCH   3  12
ATOM     12  C   UNL d   1      15.745  41.714   0.139  0.00  0.00     0.014 A 
ATOM     13  C   UNL d   1      15.583  41.364   1.061  0.00  0.00     0.029 A 
ATOM     14  C   UNL d   1      15.807  40.415   1.282  0.00  0.00    -0.001 A 
ATOM     15  C   UNL d   1      16.193  39.816   0.581  0.00  0.00     0.017 A 
ATOM     16  C   UNL d   1      16.356  40.166  -0.341  0.00  0.00     0.038 A 
ATOM     17  C   UNL d   1      16.132  41.115  -0.563  0.00  0.00     0.076 A 
BRANCH  14  18
ATOM     18  C   UNL d   1      15.644  40.064   2.205  0.00  0.00     0.090 A 
ATOM     19  O   UNL d   1      16.348  39.524   2.665  0.00  0.00    -0.309 OA
ATOM     20  C   UNL d   1      16.185  39.173   3.588  0.00  0.00     0.095 A 
ATOM     21  C   UNL d   1      15.319  39.364   4.049  0.00  0.00     0.081 A 
ATOM     22  C   UNL d   1      16.928  38.611   4.055  0.00  0.00     0.075 A 
ATOM     23  C   UNL d   1      14.615  39.904   3.589  0.00  0.00     0.190 A 
ATOM     24  C   UNL d   1      15.135  39.005   5.010  0.00  0.00     0.085 A 
ATOM     25  O   UNL d   1      13.749  40.095   4.050  0.00  0.00    -0.287 OA
ATOM     26  C   UNL d   1      14.778  40.255   2.666  0.00  0.00     0.094 A 
ATOM     27  C   UNL d   1      15.863  38.441   5.497  0.00  0.00     0.074 A 
ATOM     28  C   UNL d   1      16.766  38.243   5.016  0.00  0.00     0.071 A 
BRANCH  24  29
ATOM     29  O   UNL d   1      14.265  39.202   5.462  0.00  0.00    -0.360 OA
ATOM     30  H   UNL d   1      13.889  38.737   5.627  0.00  0.00     0.217 HD
ENDBRANCH  24  29
BRANCH  28  31
ATOM     31  O   UNL d   1      17.472  37.702   5.473  0.00  0.00    -0.361 OA
ATOM     32  H   UNL d   1      17.416  37.086   5.509  0.00  0.00     0.217 HD
ENDBRANCH  28  31
ENDBRANCH  14  18
BRANCH  17  33
ATOM     33  O   UNL d   1      16.295  41.466  -1.485  0.00  0.00    -0.360 OA
ATOM     34  H   UNL d   1      16.723  41.904  -1.579  0.00  0.00     0.217 HD
ENDBRANCH  17  33
ENDBRANCH   3  12
BRANCH   6  35
ATOM     35  O   UNL d   1      13.913  42.183  -0.512  0.00  0.00    -0.360 OA
ATOM     36  H   UNL d   1      14.053  41.658  -0.810  0.00  0.00     0.217 HD
ENDBRANCH   6  35
BRANCH   9  37
ATOM     37  C   UNL d   1      18.803  43.617   0.799  0.00  0.00    -0.002 A 
ATOM     38  C   UNL d   1      19.210  44.123   1.560  0.00  0.00     0.017 A 
ATOM     39  C   UNL d   1      20.125  43.885   1.886  0.00  0.00     0.037 A 
ATOM     40  C   UNL d   1      20.632  43.141   1.451  0.00  0.00     0.065 A 
ATOM     41  C   UNL d   1      20.225  42.635   0.690  0.00  0.00     0.037 A 
ATOM     42  C   UNL d   1      19.310  42.874   0.365  0.00  0.00     0.017 A 
BRANCH  40  43
ATOM     43  O   UNL d   1      21.547  42.902   1.777  0.00  0.00    -0.361 OA
ATOM     44  H   UNL d   1      21.707  42.306   1.846  0.00  0.00     0.217 HD
ENDBRANCH  40  43
ENDBRANCH   9  37
BRANCH   7  45
ATOM     45  O   UNL d   1      14.849  45.511  -0.746  0.00  0.00    -0.360 OA
ATOM     46  H   UNL d   1      14.523  45.641  -1.257  0.00  0.00     0.217 HD
ENDBRANCH   7  45
TORSDOF 9
ENDMDL
