MODEL 1
REMARK VINA RESULT:    -8.878      0.000      0.000
REMARK INTER + INTRA:          -8.793
REMARK INTER:                  -9.794
REMARK INTRA:                   1.001
REMARK UNBOUND:                 1.123
REMARK  3 active torsions:
REMARK  status: ('A' for Active; 'I' for Inactive)
REMARK    1  A    between atoms: O_2  and  C_10 
REMARK    2  A    between atoms: O_4  and  C_13 
REMARK    3  A    between atoms: C_7  and  C_9 
ROOT
ATOM      1  O   UNL d   1      21.926  15.092  13.067  0.00  0.00    -0.309 OA
ATOM      2  O   UNL d   1      23.464  17.503  12.162  0.00  0.00    -0.287 OA
ATOM      3  C   UNL d   1      21.978  16.779  12.678  0.00  0.00     0.081 A 
ATOM      4  C   UNL d   1      21.466  15.975  12.980  0.00  0.00     0.095 A 
ATOM      5  C   UNL d   1      22.900  15.012  12.853  0.00  0.00     0.090 A 
ATOM      6  C   UNL d   1      22.952  16.699  12.464  0.00  0.00     0.190 A 
ATOM      7  C   UNL d   1      21.512  17.705  12.582  0.00  0.00     0.085 A 
ATOM      8  C   UNL d   1      23.413  15.816  12.551  0.00  0.00     0.094 A 
ATOM      9  C   UNL d   1      20.451  16.041  13.206  0.00  0.00     0.075 A 
ATOM     10  C   UNL d   1      19.964  16.958  13.118  0.00  0.00     0.071 A 
ATOM     11  C   UNL d   1      20.498  17.795  12.804  0.00  0.00     0.074 A 
ENDROOT
BRANCH   5  12
ATOM     12  C   UNL d   1      23.361  14.129  12.940  0.00  0.00    -0.002 A 
ATOM     13  C   UNL d   1      23.445  13.528  12.145  0.00  0.00     0.014 A 
ATOM     14  C   UNL d   1      23.906  12.645  12.233  0.00  0.00     0.001 A 
ATOM     15  C   UNL d   1      24.283  12.363  13.115  0.00  0.00     0.000 A 
ATOM     16  C   UNL d   1      24.198  12.964  13.910  0.00  0.00     0.001 A 
ATOM     17  C   UNL d   1      23.738  13.847  13.823  0.00  0.00     0.014 A 
ENDBRANCH   5  12
BRANCH   7  18
ATOM     18  O   UNL d   1      22.034  18.502  12.280  0.00  0.00    -0.360 OA
ATOM     19  H   UNL d   1      22.397  18.463  11.779  0.00  0.00     0.217 HD
ENDBRANCH   7  18
BRANCH  10  20
ATOM     20  O   UNL d   1      18.990  17.033  13.333  0.00  0.00    -0.361 OA
ATOM     21  H   UNL d   1      18.809  17.322  13.850  0.00  0.00     0.217 HD
ENDBRANCH  10  20
TORSDOF 3
ENDMDL
MODEL 2
REMARK VINA RESULT:    -8.364     16.883     18.819
REMARK INTER + INTRA:          -8.219
REMARK INTER:                  -9.237
REMARK INTRA:                   1.018
REMARK UNBOUND:                 1.123
REMARK  3 active torsions:
REMARK  status: ('A' for Active; 'I' for Inactive)
REMARK    1  A    between atoms: O_2  and  C_10 
REMARK    2  A    between atoms: O_4  and  C_13 
REMARK    3  A    between atoms: C_7  and  C_9 
ROOT
ATOM      1  O   UNL d   1       6.594  16.253  23.306  0.00  0.00    -0.309 OA
ATOM      2  O   UNL d   1       6.484  14.221  21.102  0.00  0.00    -0.287 OA
ATOM      3  C   UNL d   1       5.698  15.109  22.364  0.00  0.00     0.081 A 
ATOM      4  C   UNL d   1       5.734  15.786  23.099  0.00  0.00     0.095 A 
ATOM      5  C   UNL d   1       7.417  16.043  22.778  0.00  0.00     0.090 A 
ATOM      6  C   UNL d   1       6.521  14.898  21.837  0.00  0.00     0.190 A 
ATOM      7  C   UNL d   1       4.810  14.614  22.138  0.00  0.00     0.085 A 
ATOM      8  C   UNL d   1       7.380  15.365  22.044  0.00  0.00     0.094 A 
ATOM      9  C   UNL d   1       4.886  16.016  23.658  0.00  0.00     0.075 A 
ATOM     10  C   UNL d   1       3.987  15.534  23.448  0.00  0.00     0.071 A 
ATOM     11  C   UNL d   1       3.948  14.829  22.683  0.00  0.00     0.074 A 
ENDROOT
BRANCH   5  12
ATOM     12  C   UNL d   1       8.277  16.510  22.985  0.00  0.00    -0.002 A 
ATOM     13  C   UNL d   1       8.425  17.447  22.668  0.00  0.00     0.014 A 
ATOM     14  C   UNL d   1       9.285  17.914  22.875  0.00  0.00     0.001 A 
ATOM     15  C   UNL d   1       9.996  17.444  23.399  0.00  0.00     0.000 A 
ATOM     16  C   UNL d   1       9.847  16.507  23.715  0.00  0.00     0.001 A 
ATOM     17  C   UNL d   1       8.988  16.040  23.508  0.00  0.00     0.014 A 
ENDBRANCH   5  12
BRANCH   7  18
ATOM     18  O   UNL d   1       4.785  13.939  21.401  0.00  0.00    -0.360 OA
ATOM     19  H   UNL d   1       4.262  13.849  21.081  0.00  0.00     0.217 HD
ENDBRANCH   7  18
BRANCH  10  20
ATOM     20  O   UNL d   1       3.166  15.747  23.978  0.00  0.00    -0.361 OA
ATOM     21  H   UNL d   1       3.217  15.919  24.571  0.00  0.00     0.217 HD
ENDBRANCH  10  20
TORSDOF 3
ENDMDL
MODEL 3
REMARK VINA RESULT:    -8.195     16.520     18.280
REMARK INTER + INTRA:          -8.030
REMARK INTER:                  -9.035
REMARK INTRA:                   1.004
REMARK UNBOUND:                 1.123
REMARK  3 active torsions:
REMARK  status: ('A' for Active; 'I' for Inactive)
REMARK    1  A    between atoms: O_2  and  C_10 
REMARK    2  A    between atoms: O_4  and  C_13 
REMARK    3  A    between atoms: C_7  and  C_9 
ROOT
ATOM      1  O   UNL d   1       7.424  15.986  23.058  0.00  0.00    -0.309 OA
ATOM      2  O   UNL d   1       7.354  18.483  21.398  0.00  0.00    -0.287 OA
ATOM      3  C   UNL d   1       8.178  17.447  22.514  0.00  0.00     0.081 A 
ATOM      4  C   UNL d   1       8.202  16.614  23.068  0.00  0.00     0.095 A 
ATOM      5  C   UNL d   1       6.623  16.190  22.496  0.00  0.00     0.090 A 
ATOM      6  C   UNL d   1       7.377  17.651  21.951  0.00  0.00     0.190 A 
ATOM      7  C   UNL d   1       8.981  18.110  22.513  0.00  0.00     0.085 A 
ATOM      8  C   UNL d   1       6.600  17.022  21.942  0.00  0.00     0.094 A 
ATOM      9  C   UNL d   1       9.029  16.388  23.659  0.00  0.00     0.075 A 
ATOM     10  C   UNL d   1       9.843  17.037  23.673  0.00  0.00     0.071 A 
ATOM     11  C   UNL d   1       9.819  17.904  23.097  0.00  0.00     0.074 A 
ENDROOT
BRANCH   5  12
ATOM     12  C   UNL d   1       5.845  15.562  22.487  0.00  0.00    -0.002 A 
ATOM     13  C   UNL d   1       5.058  15.732  23.079  0.00  0.00     0.014 A 
ATOM     14  C   UNL d   1       4.280  15.104  23.070  0.00  0.00     0.001 A 
ATOM     15  C   UNL d   1       4.289  14.305  22.468  0.00  0.00     0.000 A 
ATOM     16  C   UNL d   1       5.076  14.135  21.876  0.00  0.00     0.001 A 
ATOM     17  C   UNL d   1       5.854  14.763  21.885  0.00  0.00     0.014 A 
ENDBRANCH   5  12
BRANCH   7  18
ATOM     18  O   UNL d   1       8.947  18.939  21.956  0.00  0.00    -0.360 OA
ATOM     19  H   UNL d   1       8.440  19.295  21.961  0.00  0.00     0.217 HD
ENDBRANCH   7  18
BRANCH  10  20
ATOM     20  O   UNL d   1      10.642  16.829  24.238  0.00  0.00    -0.361 OA
ATOM     21  H   UNL d   1      11.142  16.566  23.982  0.00  0.00     0.217 HD
ENDBRANCH  10  20
TORSDOF 3
ENDMDL
MODEL 4
REMARK VINA RESULT:    -8.126     27.193     27.943
REMARK INTER + INTRA:          -7.953
REMARK INTER:                  -8.952
REMARK INTRA:                   0.999
REMARK UNBOUND:                 1.123
REMARK  3 active torsions:
REMARK  status: ('A' for Active; 'I' for Inactive)
REMARK    1  A    between atoms: O_2  and  C_10 
REMARK    2  A    between atoms: O_4  and  C_13 
REMARK    3  A    between atoms: C_7  and  C_9 
ROOT
ATOM      1  O   UNL d   1      42.992  13.584  31.633  0.00  0.00    -0.309 OA
ATOM      2  O   UNL d   1      43.908  16.101  30.282  0.00  0.00    -0.287 OA
ATOM      3  C   UNL d   1      42.794  15.276  31.320  0.00  0.00     0.081 A 
ATOM      4  C   UNL d   1      42.488  14.437  31.770  0.00  0.00     0.095 A 
ATOM      5  C   UNL d   1      43.801  13.571  31.046  0.00  0.00     0.090 A 
ATOM      6  C   UNL d   1      43.603  15.262  30.733  0.00  0.00     0.190 A 
ATOM      7  C   UNL d   1      42.279  16.172  31.453  0.00  0.00     0.085 A 
ATOM      8  C   UNL d   1      44.106  14.410  30.596  0.00  0.00     0.094 A 
ATOM      9  C   UNL d   1      41.647  14.436  32.385  0.00  0.00     0.075 A 
ATOM     10  C   UNL d   1      41.117  15.320  32.533  0.00  0.00     0.071 A 
ATOM     11  C   UNL d   1      41.435  16.194  32.064  0.00  0.00     0.074 A 
ENDROOT
BRANCH   5  12
ATOM     12  C   UNL d   1      44.305  12.718  30.909  0.00  0.00    -0.002 A 
ATOM     13  C   UNL d   1      45.058  12.478  31.522  0.00  0.00     0.014 A 
ATOM     14  C   UNL d   1      45.562  11.625  31.385  0.00  0.00     0.001 A 
ATOM     15  C   UNL d   1      45.313  11.012  30.635  0.00  0.00     0.000 A 
ATOM     16  C   UNL d   1      44.560  11.252  30.022  0.00  0.00     0.001 A 
ATOM     17  C   UNL d   1      44.056  12.105  30.159  0.00  0.00     0.014 A 
ENDBRANCH   5  12
BRANCH   7  18
ATOM     18  O   UNL d   1      42.593  17.005  30.998  0.00  0.00    -0.360 OA
ATOM     19  H   UNL d   1      42.691  17.520  31.328  0.00  0.00     0.217 HD
ENDBRANCH   7  18
BRANCH  10  20
ATOM     20  O   UNL d   1      40.308  15.330  33.121  0.00  0.00    -0.361 OA
ATOM     21  H   UNL d   1      40.173  15.836  33.453  0.00  0.00     0.217 HD
ENDBRANCH  10  20
TORSDOF 3
ENDMDL
MODEL 5
REMARK VINA RESULT:    -7.930     11.685     12.915
REMARK INTER + INTRA:          -7.734
REMARK INTER:                  -9.143
REMARK INTRA:                   1.409
REMARK UNBOUND:                 1.123
REMARK  3 active torsions:
REMARK  status: ('A' for Active; 'I' for Inactive)
REMARK    1  A    between atoms: O_2  and  C_10 
REMARK    2  A    between atoms: O_4  and  C_13 
REMARK    3  A    between atoms: C_7  and  C_9 
ROOT
ATOM      1  O   UNL d   1      24.258  15.429   1.550  0.00  0.00    -0.309 OA
ATOM      2  O   UNL d   1      24.828  15.464  -1.395  0.00  0.00    -0.287 OA
ATOM      3  C   UNL d   1      24.786  14.616   0.115  0.00  0.00     0.081 A 
ATOM      4  C   UNL d   1      24.596  14.605   1.097  0.00  0.00     0.095 A 
ATOM      5  C   UNL d   1      24.110  16.265   1.022  0.00  0.00     0.090 A 
ATOM      6  C   UNL d   1      24.638  15.452  -0.413  0.00  0.00     0.190 A 
ATOM      7  C   UNL d   1      25.138  13.765  -0.371  0.00  0.00     0.085 A 
ATOM      8  C   UNL d   1      24.300  16.277   0.040  0.00  0.00     0.094 A 
ATOM      9  C   UNL d   1      24.745  13.741   1.660  0.00  0.00     0.075 A 
ATOM     10  C   UNL d   1      25.097  12.878   1.195  0.00  0.00     0.071 A 
ATOM     11  C   UNL d   1      25.295  12.890   0.173  0.00  0.00     0.074 A 
ENDROOT
BRANCH   5  12
ATOM     12  C   UNL d   1      23.772  17.090   1.476  0.00  0.00    -0.002 A 
ATOM     13  C   UNL d   1      23.839  17.976   1.017  0.00  0.00     0.014 A 
ATOM     14  C   UNL d   1      23.501  18.801   1.471  0.00  0.00     0.001 A 
ATOM     15  C   UNL d   1      23.096  18.739   2.383  0.00  0.00     0.000 A 
ATOM     16  C   UNL d   1      23.028  17.853   2.841  0.00  0.00     0.001 A 
ATOM     17  C   UNL d   1      23.366  17.028   2.388  0.00  0.00     0.014 A 
ENDBRANCH   5  12
BRANCH   7  18
ATOM     18  O   UNL d   1      25.325  13.788  -1.353  0.00  0.00    -0.360 OA
ATOM     19  H   UNL d   1      24.974  13.457  -1.743  0.00  0.00     0.217 HD
ENDBRANCH   7  18
BRANCH  10  20
ATOM     20  O   UNL d   1      25.244  12.044   1.727  0.00  0.00    -0.361 OA
ATOM     21  H   UNL d   1      25.380  11.513   1.438  0.00  0.00     0.217 HD
ENDBRANCH  10  20
TORSDOF 3
ENDMDL
