MODEL 1
REMARK VINA RESULT:    -8.252      0.000      0.000
REMARK INTER + INTRA:          -8.100
REMARK INTER:                 -10.110
REMARK INTRA:                   2.010
REMARK UNBOUND:                 1.840
REMARK  5 active torsions:
REMARK  status: ('A' for Active; 'I' for Inactive)
REMARK    1  A    between atoms: O_2  and  C_13 
REMARK    2  A    between atoms: O_3  and  C_19 
REMARK    3  A    between atoms: O_5  and  C_17 
REMARK    4  A    between atoms: O_6  and  C_21 
REMARK    5  A    between atoms: C_8  and  C_10 
ROOT
ATOM      1  O   UNL d   1      17.613  28.726  47.491  0.00  0.00    -0.309 OA
ATOM      2  O   UNL d   1      15.670  27.489  45.569  0.00  0.00    -0.287 OA
ATOM      3  C   UNL d   1      16.045  28.070  47.157  0.00  0.00     0.081 A 
ATOM      4  C   UNL d   1      17.886  28.557  46.544  0.00  0.00     0.090 A 
ATOM      5  C   UNL d   1      16.693  28.483  47.798  0.00  0.00     0.095 A 
ATOM      6  C   UNL d   1      16.318  27.901  46.210  0.00  0.00     0.190 A 
ATOM      7  C   UNL d   1      17.238  28.145  45.904  0.00  0.00     0.094 A 
ATOM      8  C   UNL d   1      15.084  27.811  47.462  0.00  0.00     0.085 A 
ATOM      9  C   UNL d   1      16.424  28.665  48.788  0.00  0.00     0.075 A 
ATOM     10  C   UNL d   1      15.467  28.413  49.114  0.00  0.00     0.071 A 
ATOM     11  C   UNL d   1      14.793  27.984  48.447  0.00  0.00     0.074 A 
ENDROOT
BRANCH   4  12
ATOM     12  C   UNL d   1      18.806  28.801  46.238  0.00  0.00     0.001 A 
ATOM     13  C   UNL d   1      18.927  29.410  45.454  0.00  0.00     0.054 A 
ATOM     14  C   UNL d   1      19.847  29.654  45.147  0.00  0.00     0.102 A 
ATOM     15  C   UNL d   1      20.646  29.289  45.625  0.00  0.00     0.099 A 
ATOM     16  C   UNL d   1      20.525  28.680  46.409  0.00  0.00     0.040 A 
ATOM     17  C   UNL d   1      19.605  28.436  46.715  0.00  0.00     0.017 A 
BRANCH  14  18
ATOM     18  O   UNL d   1      19.968  30.263  44.363  0.00  0.00    -0.353 OA
ATOM     19  C   UNL d   1      19.360  30.187  43.573  0.00  0.00     0.210 C 
ENDBRANCH  14  18
BRANCH  15  20
ATOM     20  O   UNL d   1      21.566  29.532  45.318  0.00  0.00    -0.358 OA
ATOM     21  H   UNL d   1      22.041  29.151  45.430  0.00  0.00     0.217 HD
ENDBRANCH  15  20
ENDBRANCH   4  12
BRANCH   8  22
ATOM     22  O   UNL d   1      14.445  27.399  46.813  0.00  0.00    -0.360 OA
ATOM     23  H   UNL d   1      13.915  27.689  46.673  0.00  0.00     0.217 HD
ENDBRANCH   8  22
BRANCH  10  24
ATOM     24  O   UNL d   1      15.198  28.584  50.062  0.00  0.00    -0.361 OA
ATOM     25  H   UNL d   1      15.246  28.132  50.484  0.00  0.00     0.217 HD
ENDBRANCH  10  24
TORSDOF 5
ENDMDL
MODEL 2
REMARK VINA RESULT:    -8.039      0.863      1.897
REMARK INTER + INTRA:          -7.844
REMARK INTER:                  -9.818
REMARK INTRA:                   1.974
REMARK UNBOUND:                 1.840
REMARK  5 active torsions:
REMARK  status: ('A' for Active; 'I' for Inactive)
REMARK    1  A    between atoms: O_2  and  C_13 
REMARK    2  A    between atoms: O_3  and  C_19 
REMARK    3  A    between atoms: O_5  and  C_17 
REMARK    4  A    between atoms: O_6  and  C_21 
REMARK    5  A    between atoms: C_8  and  C_10 
ROOT
ATOM      1  O   UNL d   1      17.336  28.275  46.597  0.00  0.00    -0.309 OA
ATOM      2  O   UNL d   1      17.499  29.466  49.345  0.00  0.00    -0.287 OA
ATOM      3  C   UNL d   1      16.576  28.706  48.092  0.00  0.00     0.081 A 
ATOM      4  C   UNL d   1      18.204  28.638  46.934  0.00  0.00     0.090 A 
ATOM      5  C   UNL d   1      16.521  28.309  47.176  0.00  0.00     0.095 A 
ATOM      6  C   UNL d   1      17.444  29.069  48.429  0.00  0.00     0.190 A 
ATOM      7  C   UNL d   1      18.259  29.035  47.850  0.00  0.00     0.094 A 
ATOM      8  C   UNL d   1      15.736  28.748  48.707  0.00  0.00     0.085 A 
ATOM      9  C   UNL d   1      15.624  27.926  46.811  0.00  0.00     0.075 A 
ATOM     10  C   UNL d   1      14.771  27.958  47.409  0.00  0.00     0.071 A 
ATOM     11  C   UNL d   1      14.828  28.372  48.363  0.00  0.00     0.074 A 
ENDROOT
BRANCH   4  12
ATOM     12  C   UNL d   1      19.019  28.604  46.354  0.00  0.00     0.001 A 
ATOM     13  C   UNL d   1      19.245  29.378  45.763  0.00  0.00     0.054 A 
ATOM     14  C   UNL d   1      20.059  29.344  45.184  0.00  0.00     0.102 A 
ATOM     15  C   UNL d   1      20.648  28.536  45.196  0.00  0.00     0.099 A 
ATOM     16  C   UNL d   1      20.422  27.762  45.787  0.00  0.00     0.040 A 
ATOM     17  C   UNL d   1      19.607  27.796  46.366  0.00  0.00     0.017 A 
BRANCH  14  18
ATOM     18  O   UNL d   1      20.285  30.119  44.593  0.00  0.00    -0.353 OA
ATOM     19  C   UNL d   1      19.596  30.490  43.970  0.00  0.00     0.210 C 
ENDBRANCH  14  18
BRANCH  15  20
ATOM     20  O   UNL d   1      21.462  28.502  44.617  0.00  0.00    -0.358 OA
ATOM     21  H   UNL d   1      21.404  28.502  43.999  0.00  0.00     0.217 HD
ENDBRANCH  15  20
ENDBRANCH   4  12
BRANCH   8  22
ATOM     22  O   UNL d   1      15.802  29.148  49.621  0.00  0.00    -0.360 OA
ATOM     23  H   UNL d   1      15.408  28.971  50.065  0.00  0.00     0.217 HD
ENDBRANCH   8  22
BRANCH  10  24
ATOM     24  O   UNL d   1      13.904  27.594  47.068  0.00  0.00    -0.361 OA
ATOM     25  H   UNL d   1      13.402  27.956  47.050  0.00  0.00     0.217 HD
ENDBRANCH  10  24
TORSDOF 5
ENDMDL
MODEL 3
REMARK VINA RESULT:    -7.983      1.367      5.077
REMARK INTER + INTRA:          -7.777
REMARK INTER:                  -9.786
REMARK INTRA:                   2.009
REMARK UNBOUND:                 1.840
REMARK  5 active torsions:
REMARK  status: ('A' for Active; 'I' for Inactive)
REMARK    1  A    between atoms: O_2  and  C_13 
REMARK    2  A    between atoms: O_3  and  C_19 
REMARK    3  A    between atoms: O_5  and  C_17 
REMARK    4  A    between atoms: O_6  and  C_21 
REMARK    5  A    between atoms: C_8  and  C_10 
ROOT
ATOM      1  O   UNL d   1      18.822  29.126  46.754  0.00  0.00    -0.309 OA
ATOM      2  O   UNL d   1      17.700  27.812  44.301  0.00  0.00    -0.287 OA
ATOM      3  C   UNL d   1      19.007  28.609  45.111  0.00  0.00     0.081 A 
ATOM      4  C   UNL d   1      17.889  28.767  46.761  0.00  0.00     0.090 A 
ATOM      5  C   UNL d   1      19.381  29.047  45.928  0.00  0.00     0.095 A 
ATOM      6  C   UNL d   1      18.074  28.250  45.119  0.00  0.00     0.190 A 
ATOM      7  C   UNL d   1      17.515  28.329  45.944  0.00  0.00     0.094 A 
ATOM      8  C   UNL d   1      19.578  28.520  44.245  0.00  0.00     0.085 A 
ATOM      9  C   UNL d   1      20.352  29.426  45.936  0.00  0.00     0.075 A 
ATOM     10  C   UNL d   1      20.940  29.347  45.080  0.00  0.00     0.071 A 
ATOM     11  C   UNL d   1      20.551  28.891  44.229  0.00  0.00     0.074 A 
ENDROOT
BRANCH   4  12
ATOM     12  C   UNL d   1      17.329  28.846  47.587  0.00  0.00     0.001 A 
ATOM     13  C   UNL d   1      16.981  28.023  48.035  0.00  0.00     0.054 A 
ATOM     14  C   UNL d   1      16.422  28.102  48.860  0.00  0.00     0.102 A 
ATOM     15  C   UNL d   1      16.211  29.004  49.237  0.00  0.00     0.099 A 
ATOM     16  C   UNL d   1      16.560  29.827  48.789  0.00  0.00     0.040 A 
ATOM     17  C   UNL d   1      17.119  29.748  47.964  0.00  0.00     0.017 A 
BRANCH  14  18
ATOM     18  O   UNL d   1      16.073  27.279  49.309  0.00  0.00    -0.353 OA
ATOM     19  C   UNL d   1      16.677  26.497  49.457  0.00  0.00     0.210 C 
ENDBRANCH  14  18
BRANCH  15  20
ATOM     20  O   UNL d   1      15.652  29.084  50.062  0.00  0.00    -0.358 OA
ATOM     21  H   UNL d   1      15.173  29.478  50.076  0.00  0.00     0.217 HD
ENDBRANCH  15  20
ENDBRANCH   4  12
BRANCH   8  22
ATOM     22  O   UNL d   1      19.193  28.080  43.433  0.00  0.00    -0.360 OA
ATOM     23  H   UNL d   1      18.975  28.426  42.967  0.00  0.00     0.217 HD
ENDBRANCH   8  22
BRANCH  10  24
ATOM     24  O   UNL d   1      21.873  29.707  45.076  0.00  0.00    -0.361 OA
ATOM     25  H   UNL d   1      22.153  29.847  45.612  0.00  0.00     0.217 HD
ENDBRANCH  10  24
TORSDOF 5
ENDMDL
MODEL 4
REMARK VINA RESULT:    -7.726      1.512      5.245
REMARK INTER + INTRA:          -7.467
REMARK INTER:                  -9.416
REMARK INTRA:                   1.949
REMARK UNBOUND:                 1.840
REMARK  5 active torsions:
REMARK  status: ('A' for Active; 'I' for Inactive)
REMARK    1  A    between atoms: O_2  and  C_13 
REMARK    2  A    between atoms: O_3  and  C_19 
REMARK    3  A    between atoms: O_5  and  C_17 
REMARK    4  A    between atoms: O_6  and  C_21 
REMARK    5  A    between atoms: C_8  and  C_10 
ROOT
ATOM      1  O   UNL d   1      17.751  28.458  46.059  0.00  0.00    -0.309 OA
ATOM      2  O   UNL d   1      20.699  28.791  46.509  0.00  0.00    -0.287 OA
ATOM      3  C   UNL d   1      19.370  28.480  45.443  0.00  0.00     0.081 A 
ATOM      4  C   UNL d   1      18.098  28.658  46.975  0.00  0.00     0.090 A 
ATOM      5  C   UNL d   1      18.388  28.369  45.292  0.00  0.00     0.095 A 
ATOM      6  C   UNL d   1      19.716  28.680  46.359  0.00  0.00     0.190 A 
ATOM      7  C   UNL d   1      19.080  28.769  47.126  0.00  0.00     0.094 A 
ATOM      8  C   UNL d   1      20.044  28.391  44.654  0.00  0.00     0.085 A 
ATOM      9  C   UNL d   1      18.012  28.161  44.343  0.00  0.00     0.075 A 
ATOM     10  C   UNL d   1      18.668  28.067  43.540  0.00  0.00     0.071 A 
ATOM     11  C   UNL d   1      19.691  28.183  43.696  0.00  0.00     0.074 A 
ENDROOT
BRANCH   4  12
ATOM     12  C   UNL d   1      17.462  28.747  47.742  0.00  0.00     0.001 A 
ATOM     13  C   UNL d   1      17.064  27.929  48.159  0.00  0.00     0.054 A 
ATOM     14  C   UNL d   1      16.427  28.018  48.925  0.00  0.00     0.102 A 
ATOM     15  C   UNL d   1      16.189  28.924  49.275  0.00  0.00     0.099 A 
ATOM     16  C   UNL d   1      16.587  29.742  48.858  0.00  0.00     0.040 A 
ATOM     17  C   UNL d   1      17.223  29.653  48.091  0.00  0.00     0.017 A 
BRANCH  14  18
ATOM     18  O   UNL d   1      16.030  27.201  49.342  0.00  0.00    -0.353 OA
ATOM     19  C   UNL d   1      16.610  26.415  49.555  0.00  0.00     0.210 C 
ENDBRANCH  14  18
BRANCH  15  20
ATOM     20  O   UNL d   1      15.553  29.013  50.041  0.00  0.00    -0.358 OA
ATOM     21  H   UNL d   1      14.947  29.088  49.934  0.00  0.00     0.217 HD
ENDBRANCH  15  20
ENDBRANCH   4  12
BRANCH   8  22
ATOM     22  O   UNL d   1      21.025  28.504  44.816  0.00  0.00    -0.360 OA
ATOM     23  H   UNL d   1      21.388  28.005  44.876  0.00  0.00     0.217 HD
ENDBRANCH   8  22
BRANCH  10  24
ATOM     24  O   UNL d   1      18.318  27.867  42.625  0.00  0.00    -0.361 OA
ATOM     25  H   UNL d   1      18.626  27.478  42.254  0.00  0.00     0.217 HD
ENDBRANCH  10  24
TORSDOF 5
ENDMDL
MODEL 5
REMARK VINA RESULT:    -7.535     23.719     26.108
REMARK INTER + INTRA:          -7.238
REMARK INTER:                  -9.063
REMARK INTRA:                   1.825
REMARK UNBOUND:                 1.840
REMARK  5 active torsions:
REMARK  status: ('A' for Active; 'I' for Inactive)
REMARK    1  A    between atoms: O_2  and  C_13 
REMARK    2  A    between atoms: O_3  and  C_19 
REMARK    3  A    between atoms: O_5  and  C_17 
REMARK    4  A    between atoms: O_6  and  C_21 
REMARK    5  A    between atoms: C_8  and  C_10 
ROOT
ATOM      1  O   UNL d   1      -5.809  23.176  35.672  0.00  0.00    -0.309 OA
ATOM      2  O   UNL d   1      -5.362  25.985  34.719  0.00  0.00    -0.287 OA
ATOM      3  C   UNL d   1      -6.323  24.544  34.743  0.00  0.00     0.081 A 
ATOM      4  C   UNL d   1      -4.998  23.681  35.966  0.00  0.00     0.090 A 
ATOM      5  C   UNL d   1      -6.472  23.608  35.060  0.00  0.00     0.095 A 
ATOM      6  C   UNL d   1      -5.511  25.049  35.037  0.00  0.00     0.190 A 
ATOM      7  C   UNL d   1      -4.848  24.617  35.649  0.00  0.00     0.094 A 
ATOM      8  C   UNL d   1      -7.004  25.007  34.105  0.00  0.00     0.085 A 
ATOM      9  C   UNL d   1      -7.312  23.069  34.762  0.00  0.00     0.075 A 
ATOM     10  C   UNL d   1      -8.007  23.513  34.125  0.00  0.00     0.071 A 
ATOM     11  C   UNL d   1      -7.852  24.488  33.794  0.00  0.00     0.074 A 
ENDROOT
BRANCH   4  12
ATOM     12  C   UNL d   1      -4.335  23.249  36.578  0.00  0.00     0.001 A 
ATOM     13  C   UNL d   1      -4.458  23.306  37.569  0.00  0.00     0.054 A 
ATOM     14  C   UNL d   1      -3.795  22.875  38.181  0.00  0.00     0.102 A 
ATOM     15  C   UNL d   1      -3.010  22.385  37.802  0.00  0.00     0.099 A 
ATOM     16  C   UNL d   1      -2.887  22.328  36.811  0.00  0.00     0.040 A 
ATOM     17  C   UNL d   1      -3.549  22.760  36.200  0.00  0.00     0.017 A 
BRANCH  14  18
ATOM     18  O   UNL d   1      -3.918  22.932  39.172  0.00  0.00    -0.353 OA
ATOM     19  C   UNL d   1      -4.597  23.557  39.556  0.00  0.00     0.210 C 
ENDBRANCH  14  18
BRANCH  15  20
ATOM     20  O   UNL d   1      -2.347  21.953  38.414  0.00  0.00    -0.358 OA
ATOM     21  H   UNL d   1      -2.265  21.339  38.398  0.00  0.00     0.217 HD
ENDBRANCH  15  20
ENDBRANCH   4  12
BRANCH   8  22
ATOM     22  O   UNL d   1      -6.845  25.944  33.794  0.00  0.00    -0.360 OA
ATOM     23  H   UNL d   1      -6.420  26.057  33.357  0.00  0.00     0.217 HD
ENDBRANCH   8  22
BRANCH  10  24
ATOM     24  O   UNL d   1      -8.817  23.004  33.833  0.00  0.00    -0.361 OA
ATOM     25  H   UNL d   1      -9.336  23.027  34.172  0.00  0.00     0.217 HD
ENDBRANCH  10  24
TORSDOF 5
ENDMDL
