MODEL 1
REMARK VINA RESULT:    -8.142      0.000      0.000
REMARK INTER + INTRA:           1.427
REMARK INTER:                 -11.090
REMARK INTRA:                  12.517
REMARK UNBOUND:                12.425
REMARK  9 active torsions:
REMARK  status: ('A' for Active; 'I' for Inactive)
REMARK    1  A    between atoms: C_15  and  O_2 
REMARK    2  A    between atoms: O_2  and  C_17 
REMARK    3  A    between atoms: C_11  and  O_3 
REMARK    4  A    between atoms: C_12  and  O_4 
REMARK    5  A    between atoms: C_13  and  O_5 
REMARK    6  A    between atoms: O_8  and  C_23 
REMARK    7  A    between atoms: O_9  and  C_28 
REMARK    8  A    between atoms: O_10  and  C_31 
REMARK    9  A    between atoms: C_18  and  C_22 
ROOT
ATOM      1  O   UNL d   1       9.825  42.887  41.368  0.00  0.00    -0.306 OA
ATOM      2  O   UNL d   1       8.227  43.774  38.989  0.00  0.00    -0.284 OA
ATOM      3  C   UNL d   1       8.354  43.505  40.695  0.00  0.00     0.157 A 
ATOM      4  C   UNL d   1       8.886  43.209  41.488  0.00  0.00     0.123 A 
ATOM      5  C   UNL d   1       8.760  43.479  39.782  0.00  0.00     0.223 A 
ATOM      6  C   UNL d   1       9.699  43.156  39.662  0.00  0.00     0.084 A 
ATOM      7  C   UNL d   1      10.232  42.861  40.454  0.00  0.00     0.096 A 
ATOM      8  C   UNL d   1      10.108  43.135  38.704  0.00  0.00     0.085 A 
ATOM      9  C   UNL d   1      11.211  42.523  40.345  0.00  0.00     0.075 A 
ATOM     10  C   UNL d   1      11.086  42.800  38.570  0.00  0.00     0.074 A 
ATOM     11  C   UNL d   1      11.641  42.492  39.396  0.00  0.00     0.071 A 
ENDROOT
BRANCH   3  12
ATOM     12  O   UNL d   1       7.415  43.827  40.816  0.00  0.00    -0.311 OA
BRANCH  12  13
ATOM     13  C   UNL d   1       7.186  44.783  40.632  0.00  0.00     0.298 A 
ATOM     14  O   UNL d   1       7.880  45.494  40.748  0.00  0.00    -0.351 OA
ATOM     15  C   UNL d   1       7.652  46.450  40.564  0.00  0.00     0.152 A 
ATOM     16  C   UNL d   1       6.730  46.695  40.263  0.00  0.00     0.178 A 
ATOM     17  C   UNL d   1       8.345  47.161  40.680  0.00  0.00     0.042 C 
ATOM     18  C   UNL d   1       6.036  45.984  40.147  0.00  0.00     0.183 A 
ATOM     19  C   UNL d   1       6.265  45.028  40.331  0.00  0.00     0.205 A 
BRANCH  16  20
ATOM     20  O   UNL d   1       6.502  47.651  40.079  0.00  0.00    -0.390 OA
ATOM     21  H   UNL d   1       6.717  47.928  39.568  0.00  0.00     0.210 HD
ENDBRANCH  16  20
BRANCH  18  22
ATOM     22  O   UNL d   1       5.115  46.229  39.846  0.00  0.00    -0.390 OA
ATOM     23  H   UNL d   1       5.009  46.365  39.250  0.00  0.00     0.210 HD
ENDBRANCH  18  22
BRANCH  19  24
ATOM     24  O   UNL d   1       5.571  44.317  40.215  0.00  0.00    -0.388 OA
ATOM     25  H   UNL d   1       5.732  43.719  40.245  0.00  0.00     0.210 HD
ENDBRANCH  19  24
ENDBRANCH  12  13
ENDBRANCH   3  12
BRANCH   4  26
ATOM     26  C   UNL d   1       8.480  43.236  42.402  0.00  0.00     0.001 A 
ATOM     27  C   UNL d   1       8.671  44.005  43.012  0.00  0.00     0.017 A 
ATOM     28  C   UNL d   1       8.264  44.032  43.925  0.00  0.00     0.037 A 
ATOM     29  C   UNL d   1       7.668  43.289  44.228  0.00  0.00     0.065 A 
ATOM     30  C   UNL d   1       7.477  42.519  43.619  0.00  0.00     0.037 A 
ATOM     31  C   UNL d   1       7.884  42.493  42.705  0.00  0.00     0.017 A 
BRANCH  29  32
ATOM     32  O   UNL d   1       7.262  43.315  45.142  0.00  0.00    -0.361 OA
ATOM     33  H   UNL d   1       6.846  42.886  45.309  0.00  0.00     0.217 HD
ENDBRANCH  29  32
ENDBRANCH   4  26
BRANCH   8  34
ATOM     34  O   UNL d   1       9.566  43.433  37.918  0.00  0.00    -0.360 OA
ATOM     35  H   UNL d   1       9.525  43.072  37.415  0.00  0.00     0.217 HD
ENDBRANCH   8  34
BRANCH  11  36
ATOM     36  O   UNL d   1      12.581  42.170  39.280  0.00  0.00    -0.361 OA
ATOM     37  H   UNL d   1      12.689  41.577  39.133  0.00  0.00     0.217 HD
ENDBRANCH  11  36
TORSDOF 9
ENDMDL
MODEL 2
REMARK VINA RESULT:    -7.945      1.370      4.772
REMARK INTER + INTRA:           1.693
REMARK INTER:                 -10.707
REMARK INTRA:                  12.400
REMARK UNBOUND:                12.425
REMARK  9 active torsions:
REMARK  status: ('A' for Active; 'I' for Inactive)
REMARK    1  A    between atoms: C_15  and  O_2 
REMARK    2  A    between atoms: O_2  and  C_17 
REMARK    3  A    between atoms: C_11  and  O_3 
REMARK    4  A    between atoms: C_12  and  O_4 
REMARK    5  A    between atoms: C_13  and  O_5 
REMARK    6  A    between atoms: O_8  and  C_23 
REMARK    7  A    between atoms: O_9  and  C_28 
REMARK    8  A    between atoms: O_10  and  C_31 
REMARK    9  A    between atoms: C_18  and  C_22 
ROOT
ATOM      1  O   UNL d   1       7.800  45.123  41.844  0.00  0.00    -0.306 OA
ATOM      2  O   UNL d   1       7.495  42.423  40.574  0.00  0.00    -0.284 OA
ATOM      3  C   UNL d   1       7.620  44.144  40.427  0.00  0.00     0.157 A 
ATOM      4  C   UNL d   1       7.722  45.044  40.850  0.00  0.00     0.123 A 
ATOM      5  C   UNL d   1       7.597  43.323  40.997  0.00  0.00     0.223 A 
ATOM      6  C   UNL d   1       7.675  43.402  41.991  0.00  0.00     0.084 A 
ATOM      7  C   UNL d   1       7.777  44.302  42.414  0.00  0.00     0.096 A 
ATOM      8  C   UNL d   1       7.650  42.538  42.572  0.00  0.00     0.085 A 
ATOM      9  C   UNL d   1       7.860  44.401  43.448  0.00  0.00     0.075 A 
ATOM     10  C   UNL d   1       7.731  42.613  43.608  0.00  0.00     0.074 A 
ATOM     11  C   UNL d   1       7.837  43.550  44.049  0.00  0.00     0.071 A 
ENDROOT
BRANCH   3  12
ATOM     12  O   UNL d   1       7.541  44.065  39.433  0.00  0.00    -0.311 OA
BRANCH  12  13
ATOM     13  C   UNL d   1       8.288  43.663  38.903  0.00  0.00     0.298 A 
ATOM     14  O   UNL d   1       9.214  43.642  39.279  0.00  0.00    -0.351 OA
ATOM     15  C   UNL d   1       9.960  43.240  38.749  0.00  0.00     0.152 A 
ATOM     16  C   UNL d   1       9.781  42.859  37.842  0.00  0.00     0.178 A 
ATOM     17  C   UNL d   1      10.886  43.219  39.126  0.00  0.00     0.042 C 
ATOM     18  C   UNL d   1       8.855  42.880  37.465  0.00  0.00     0.183 A 
ATOM     19  C   UNL d   1       8.108  43.282  37.996  0.00  0.00     0.205 A 
BRANCH  16  20
ATOM     20  O   UNL d   1      10.528  42.457  37.312  0.00  0.00    -0.390 OA
ATOM     21  H   UNL d   1      11.082  42.370  37.575  0.00  0.00     0.210 HD
ENDBRANCH  16  20
BRANCH  18  22
ATOM     22  O   UNL d   1       8.676  42.499  36.558  0.00  0.00    -0.390 OA
ATOM     23  H   UNL d   1       9.005  42.015  36.354  0.00  0.00     0.210 HD
ENDBRANCH  18  22
BRANCH  19  24
ATOM     24  O   UNL d   1       7.182  43.303  37.619  0.00  0.00    -0.388 OA
ATOM     25  H   UNL d   1       7.096  43.417  37.015  0.00  0.00     0.210 HD
ENDBRANCH  19  24
ENDBRANCH  12  13
ENDBRANCH   3  12
BRANCH   4  26
ATOM     26  C   UNL d   1       7.745  45.865  40.279  0.00  0.00     0.001 A 
ATOM     27  C   UNL d   1       6.905  46.201  39.852  0.00  0.00     0.017 A 
ATOM     28  C   UNL d   1       6.929  47.022  39.282  0.00  0.00     0.037 A 
ATOM     29  C   UNL d   1       7.791  47.507  39.139  0.00  0.00     0.065 A 
ATOM     30  C   UNL d   1       8.631  47.171  39.566  0.00  0.00     0.037 A 
ATOM     31  C   UNL d   1       8.608  46.350  40.136  0.00  0.00     0.017 A 
BRANCH  29  32
ATOM     32  O   UNL d   1       7.814  48.328  38.568  0.00  0.00    -0.361 OA
ATOM     33  H   UNL d   1       7.712  48.285  37.958  0.00  0.00     0.217 HD
ENDBRANCH  29  32
ENDBRANCH   4  26
BRANCH   8  34
ATOM     34  O   UNL d   1       7.547  41.643  42.138  0.00  0.00    -0.360 OA
ATOM     35  H   UNL d   1       7.540  41.597  41.519  0.00  0.00     0.217 HD
ENDBRANCH   8  34
BRANCH  11  36
ATOM     36  O   UNL d   1       7.916  43.633  45.043  0.00  0.00    -0.361 OA
ATOM     37  H   UNL d   1       7.489  43.950  45.362  0.00  0.00     0.217 HD
ENDBRANCH  11  36
TORSDOF 9
ENDMDL
MODEL 3
REMARK VINA RESULT:    -7.923     14.811     17.001
REMARK INTER + INTRA:           1.723
REMARK INTER:                 -10.973
REMARK INTRA:                  12.697
REMARK UNBOUND:                12.425
REMARK  9 active torsions:
REMARK  status: ('A' for Active; 'I' for Inactive)
REMARK    1  A    between atoms: C_15  and  O_2 
REMARK    2  A    between atoms: O_2  and  C_17 
REMARK    3  A    between atoms: C_11  and  O_3 
REMARK    4  A    between atoms: C_12  and  O_4 
REMARK    5  A    between atoms: C_13  and  O_5 
REMARK    6  A    between atoms: O_8  and  C_23 
REMARK    7  A    between atoms: O_9  and  C_28 
REMARK    8  A    between atoms: O_10  and  C_31 
REMARK    9  A    between atoms: C_18  and  C_22 
ROOT
ATOM      1  O   UNL d   1      -0.644  46.122  29.090  0.00  0.00    -0.306 OA
ATOM      2  O   UNL d   1      -0.324  46.062  26.108  0.00  0.00    -0.284 OA
ATOM      3  C   UNL d   1      -1.341  46.182  27.505  0.00  0.00     0.157 A 
ATOM      4  C   UNL d   1      -1.447  46.202  28.499  0.00  0.00     0.123 A 
ATOM      5  C   UNL d   1      -0.431  46.082  27.102  0.00  0.00     0.223 A 
ATOM      6  C   UNL d   1       0.372  46.003  27.693  0.00  0.00     0.084 A 
ATOM      7  C   UNL d   1       0.265  46.023  28.687  0.00  0.00     0.096 A 
ATOM      8  C   UNL d   1       1.313  45.899  27.258  0.00  0.00     0.085 A 
ATOM      9  C   UNL d   1       1.092  45.941  29.315  0.00  0.00     0.075 A 
ATOM     10  C   UNL d   1       2.154  45.816  27.867  0.00  0.00     0.074 A 
ATOM     11  C   UNL d   1       2.043  45.837  28.903  0.00  0.00     0.071 A 
ENDROOT
BRANCH   3  12
ATOM     12  O   UNL d   1      -2.144  46.262  26.915  0.00  0.00    -0.311 OA
BRANCH  12  13
ATOM     13  C   UNL d   1      -2.463  45.469  26.395  0.00  0.00     0.298 A 
ATOM     14  O   UNL d   1      -2.050  44.571  26.549  0.00  0.00    -0.351 OA
ATOM     15  C   UNL d   1      -2.370  43.779  26.030  0.00  0.00     0.152 A 
ATOM     16  C   UNL d   1      -3.102  43.884  25.357  0.00  0.00     0.178 A 
ATOM     17  C   UNL d   1      -1.957  42.881  26.184  0.00  0.00     0.042 C 
ATOM     18  C   UNL d   1      -3.514  44.781  25.203  0.00  0.00     0.183 A 
ATOM     19  C   UNL d   1      -3.195  45.574  25.722  0.00  0.00     0.205 A 
BRANCH  16  20
ATOM     20  O   UNL d   1      -3.421  43.091  24.837  0.00  0.00    -0.390 OA
ATOM     21  H   UNL d   1      -3.549  43.147  24.233  0.00  0.00     0.210 HD
ENDBRANCH  16  20
BRANCH  18  22
ATOM     22  O   UNL d   1      -4.246  44.887  24.530  0.00  0.00    -0.390 OA
ATOM     23  H   UNL d   1      -4.659  44.432  24.447  0.00  0.00     0.210 HD
ENDBRANCH  18  22
BRANCH  19  24
ATOM     24  O   UNL d   1      -3.607  46.472  25.568  0.00  0.00    -0.388 OA
ATOM     25  H   UNL d   1      -4.178  46.591  25.779  0.00  0.00     0.210 HD
ENDBRANCH  19  24
ENDBRANCH  12  13
ENDBRANCH   3  12
BRANCH   4  26
ATOM     26  C   UNL d   1      -2.357  46.301  28.903  0.00  0.00     0.001 A 
ATOM     27  C   UNL d   1      -2.833  47.179  28.852  0.00  0.00     0.017 A 
ATOM     28  C   UNL d   1      -3.743  47.279  29.255  0.00  0.00     0.037 A 
ATOM     29  C   UNL d   1      -4.176  46.501  29.710  0.00  0.00     0.065 A 
ATOM     30  C   UNL d   1      -3.700  45.623  29.761  0.00  0.00     0.037 A 
ATOM     31  C   UNL d   1      -2.790  45.523  29.357  0.00  0.00     0.017 A 
BRANCH  29  32
ATOM     32  O   UNL d   1      -5.086  46.600  30.113  0.00  0.00    -0.361 OA
ATOM     33  H   UNL d   1      -5.470  46.114  30.134  0.00  0.00     0.217 HD
ENDBRANCH  29  32
ENDBRANCH   4  26
BRANCH   8  34
ATOM     34  O   UNL d   1       1.408  45.881  26.263  0.00  0.00    -0.360 OA
ATOM     35  H   UNL d   1       0.954  46.105  25.904  0.00  0.00     0.217 HD
ENDBRANCH   8  34
BRANCH  11  36
ATOM     36  O   UNL d   1       2.844  45.757  29.497  0.00  0.00    -0.361 OA
ATOM     37  H   UNL d   1       3.246  45.292  29.414  0.00  0.00     0.217 HD
ENDBRANCH  11  36
TORSDOF 9
ENDMDL
MODEL 4
REMARK VINA RESULT:    -7.886     25.229     26.598
REMARK INTER + INTRA:           1.773
REMARK INTER:                 -10.634
REMARK INTRA:                  12.407
REMARK UNBOUND:                12.425
REMARK  9 active torsions:
REMARK  status: ('A' for Active; 'I' for Inactive)
REMARK    1  A    between atoms: C_15  and  O_2 
REMARK    2  A    between atoms: O_2  and  C_17 
REMARK    3  A    between atoms: C_11  and  O_3 
REMARK    4  A    between atoms: C_12  and  O_4 
REMARK    5  A    between atoms: C_13  and  O_5 
REMARK    6  A    between atoms: O_8  and  C_23 
REMARK    7  A    between atoms: O_9  and  C_28 
REMARK    8  A    between atoms: O_10  and  C_31 
REMARK    9  A    between atoms: C_18  and  C_22 
ROOT
ATOM      1  O   UNL d   1      -6.296  21.462  37.100  0.00  0.00    -0.306 OA
ATOM      2  O   UNL d   1      -7.448  24.207  37.466  0.00  0.00    -0.284 OA
ATOM      3  C   UNL d   1      -7.154  22.826  36.464  0.00  0.00     0.157 A 
ATOM      4  C   UNL d   1      -6.770  21.910  36.342  0.00  0.00     0.123 A 
ATOM      5  C   UNL d   1      -7.064  23.292  37.344  0.00  0.00     0.223 A 
ATOM      6  C   UNL d   1      -6.590  22.844  38.102  0.00  0.00     0.084 A 
ATOM      7  C   UNL d   1      -6.206  21.929  37.980  0.00  0.00     0.096 A 
ATOM      8  C   UNL d   1      -6.504  23.343  39.012  0.00  0.00     0.085 A 
ATOM      9  C   UNL d   1      -5.709  21.449  38.760  0.00  0.00     0.075 A 
ATOM     10  C   UNL d   1      -6.012  22.882  39.807  0.00  0.00     0.074 A 
ATOM     11  C   UNL d   1      -5.611  21.929  39.680  0.00  0.00     0.071 A 
ENDROOT
BRANCH   3  12
ATOM     12  O   UNL d   1      -7.628  23.274  35.707  0.00  0.00    -0.311 OA
BRANCH  12  13
ATOM     13  C   UNL d   1      -7.222  24.075  35.267  0.00  0.00     0.298 A 
ATOM     14  O   UNL d   1      -6.240  24.246  35.348  0.00  0.00    -0.351 OA
ATOM     15  C   UNL d   1      -5.835  25.048  34.909  0.00  0.00     0.152 A 
ATOM     16  C   UNL d   1      -6.411  25.678  34.389  0.00  0.00     0.178 A 
ATOM     17  C   UNL d   1      -4.853  25.219  34.989  0.00  0.00     0.042 C 
ATOM     18  C   UNL d   1      -7.393  25.507  34.308  0.00  0.00     0.183 A 
ATOM     19  C   UNL d   1      -7.799  24.706  34.747  0.00  0.00     0.205 A 
BRANCH  16  20
ATOM     20  O   UNL d   1      -6.006  26.480  33.949  0.00  0.00    -0.390 OA
ATOM     21  H   UNL d   1      -6.358  26.855  33.603  0.00  0.00     0.210 HD
ENDBRANCH  16  20
BRANCH  18  22
ATOM     22  O   UNL d   1      -7.970  26.138  33.788  0.00  0.00    -0.390 OA
ATOM     23  H   UNL d   1      -7.781  26.720  33.690  0.00  0.00     0.210 HD
ENDBRANCH  18  22
BRANCH  19  24
ATOM     24  O   UNL d   1      -8.781  24.535  34.667  0.00  0.00    -0.388 OA
ATOM     25  H   UNL d   1      -9.156  24.979  34.452  0.00  0.00     0.210 HD
ENDBRANCH  19  24
ENDBRANCH  12  13
ENDBRANCH   3  12
BRANCH   4  26
ATOM     26  C   UNL d   1      -6.860  21.444  35.463  0.00  0.00     0.001 A 
ATOM     27  C   UNL d   1      -7.738  21.048  35.194  0.00  0.00     0.017 A 
ATOM     28  C   UNL d   1      -7.828  20.581  34.314  0.00  0.00     0.037 A 
ATOM     29  C   UNL d   1      -7.039  20.510  33.703  0.00  0.00     0.065 A 
ATOM     30  C   UNL d   1      -6.161  20.906  33.972  0.00  0.00     0.037 A 
ATOM     31  C   UNL d   1      -6.071  21.373  34.852  0.00  0.00     0.017 A 
BRANCH  29  32
ATOM     32  O   UNL d   1      -7.129  20.043  32.823  0.00  0.00    -0.361 OA
ATOM     33  H   UNL d   1      -6.775  20.215  32.344  0.00  0.00     0.217 HD
ENDBRANCH  29  32
ENDBRANCH   4  26
BRANCH   8  34
ATOM     34  O   UNL d   1      -6.892  24.258  39.123  0.00  0.00    -0.360 OA
ATOM     35  H   UNL d   1      -6.774  24.584  39.637  0.00  0.00     0.217 HD
ENDBRANCH   8  34
BRANCH  11  36
ATOM     36  O   UNL d   1      -5.137  21.477  40.435  0.00  0.00    -0.361 OA
ATOM     37  H   UNL d   1      -5.357  20.945  40.666  0.00  0.00     0.217 HD
ENDBRANCH  11  36
TORSDOF 9
ENDMDL
MODEL 5
REMARK VINA RESULT:    -7.885     14.831     16.956
REMARK INTER + INTRA:           1.774
REMARK INTER:                 -10.637
REMARK INTRA:                  12.411
REMARK UNBOUND:                12.425
REMARK  9 active torsions:
REMARK  status: ('A' for Active; 'I' for Inactive)
REMARK    1  A    between atoms: C_15  and  O_2 
REMARK    2  A    between atoms: O_2  and  C_17 
REMARK    3  A    between atoms: C_11  and  O_3 
REMARK    4  A    between atoms: C_12  and  O_4 
REMARK    5  A    between atoms: C_13  and  O_5 
REMARK    6  A    between atoms: O_8  and  C_23 
REMARK    7  A    between atoms: O_9  and  C_28 
REMARK    8  A    between atoms: O_10  and  C_31 
REMARK    9  A    between atoms: C_18  and  C_22 
ROOT
ATOM      1  O   UNL d   1      -0.661  46.120  28.994  0.00  0.00    -0.306 OA
ATOM      2  O   UNL d   1      -0.516  43.904  26.976  0.00  0.00    -0.284 OA
ATOM      3  C   UNL d   1      -1.454  44.987  27.951  0.00  0.00     0.157 A 
ATOM      4  C   UNL d   1      -1.502  45.725  28.623  0.00  0.00     0.123 A 
ATOM      5  C   UNL d   1      -0.564  44.643  27.649  0.00  0.00     0.223 A 
ATOM      6  C   UNL d   1       0.276  45.038  28.019  0.00  0.00     0.084 A 
ATOM      7  C   UNL d   1       0.228  45.776  28.691  0.00  0.00     0.096 A 
ATOM      8  C   UNL d   1       1.195  44.669  27.694  0.00  0.00     0.085 A 
ATOM      9  C   UNL d   1       1.096  46.197  29.086  0.00  0.00     0.075 A 
ATOM     10  C   UNL d   1       2.076  45.075  28.075  0.00  0.00     0.074 A 
ATOM     11  C   UNL d   1       2.026  45.845  28.776  0.00  0.00     0.071 A 
ENDROOT
BRANCH   3  12
ATOM     12  O   UNL d   1      -2.294  44.592  27.581  0.00  0.00    -0.311 OA
BRANCH  12  13
ATOM     13  C   UNL d   1      -2.544  44.753  26.626  0.00  0.00     0.298 A 
ATOM     14  O   UNL d   1      -2.156  45.531  26.132  0.00  0.00    -0.351 OA
ATOM     15  C   UNL d   1      -2.406  45.692  25.177  0.00  0.00     0.152 A 
ATOM     16  C   UNL d   1      -3.044  45.075  24.717  0.00  0.00     0.178 A 
ATOM     17  C   UNL d   1      -2.017  46.469  24.683  0.00  0.00     0.042 C 
ATOM     18  C   UNL d   1      -3.433  44.297  25.211  0.00  0.00     0.183 A 
ATOM     19  C   UNL d   1      -3.183  44.136  26.166  0.00  0.00     0.205 A 
BRANCH  16  20
ATOM     20  O   UNL d   1      -3.294  45.236  23.762  0.00  0.00    -0.390 OA
ATOM     21  H   UNL d   1      -3.274  44.770  23.353  0.00  0.00     0.210 HD
ENDBRANCH  16  20
BRANCH  18  22
ATOM     22  O   UNL d   1      -4.071  43.681  24.750  0.00  0.00    -0.390 OA
ATOM     23  H   UNL d   1      -4.114  43.684  24.132  0.00  0.00     0.210 HD
ENDBRANCH  18  22
BRANCH  19  24
ATOM     24  O   UNL d   1      -3.571  43.358  26.660  0.00  0.00    -0.388 OA
ATOM     25  H   UNL d   1      -3.225  42.856  26.769  0.00  0.00     0.210 HD
ENDBRANCH  19  24
ENDBRANCH  12  13
ENDBRANCH   3  12
BRANCH   4  26
ATOM     26  C   UNL d   1      -2.391  46.069  28.926  0.00  0.00     0.001 A 
ATOM     27  C   UNL d   1      -2.725  46.951  28.594  0.00  0.00     0.017 A 
ATOM     28  C   UNL d   1      -3.614  47.295  28.896  0.00  0.00     0.037 A 
ATOM     29  C   UNL d   1      -4.169  46.756  29.530  0.00  0.00     0.065 A 
ATOM     30  C   UNL d   1      -3.834  45.874  29.863  0.00  0.00     0.037 A 
ATOM     31  C   UNL d   1      -2.945  45.531  29.560  0.00  0.00     0.017 A 
BRANCH  29  32
ATOM     32  O   UNL d   1      -5.058  47.100  29.833  0.00  0.00    -0.361 OA
ATOM     33  H   UNL d   1      -5.125  47.324  30.407  0.00  0.00     0.217 HD
ENDBRANCH  29  32
ENDBRANCH   4  26
BRANCH   8  34
ATOM     34  O   UNL d   1       1.232  43.930  27.021  0.00  0.00    -0.360 OA
ATOM     35  H   UNL d   1       1.464  44.037  26.456  0.00  0.00     0.217 HD
ENDBRANCH   8  34
BRANCH  11  36
ATOM     36  O   UNL d   1       2.865  46.242  29.148  0.00  0.00    -0.361 OA
ATOM     37  H   UNL d   1       3.386  45.907  29.164  0.00  0.00     0.217 HD
ENDBRANCH  11  36
TORSDOF 9
ENDMDL
