MODEL 1
REMARK VINA RESULT:    -2.519      0.000      0.000
REMARK INTER + INTRA:          -2.519
REMARK INTER:                  -2.519
REMARK INTRA:                   0.000
REMARK UNBOUND:                 0.000
REMARK  0 active torsions:
REMARK  status: ('A' for Active; 'I' for Inactive)
ROOT
ATOM      1  O   UNL d   1      16.834  30.287  49.705  0.00  0.00    -0.648 OA
ATOM      2  O   UNL d   1      16.937  29.995  48.001  0.00  0.00    -0.648 OA
ATOM      3  C   UNL d   1      17.891  29.056  49.100  0.00  0.00     0.129 C 
ATOM      4  C   UNL d   1      17.221  29.779  48.935  0.00  0.00     0.168 C 
ENDROOT
TORSDOF 0
ENDMDL
MODEL 2
REMARK VINA RESULT:    -2.514     11.870     12.089
REMARK INTER + INTRA:          -2.514
REMARK INTER:                  -2.514
REMARK INTRA:                   0.000
REMARK UNBOUND:                 0.000
REMARK  0 active torsions:
REMARK  status: ('A' for Active; 'I' for Inactive)
ROOT
ATOM      1  O   UNL d   1       6.219  34.336  48.007  0.00  0.00    -0.648 OA
ATOM      2  O   UNL d   1       5.147  33.010  48.314  0.00  0.00    -0.648 OA
ATOM      3  C   UNL d   1       6.131  33.643  49.592  0.00  0.00     0.129 C 
ATOM      4  C   UNL d   1       5.832  33.663  48.638  0.00  0.00     0.168 C 
ENDROOT
TORSDOF 0
ENDMDL
MODEL 3
REMARK VINA RESULT:    -2.325      1.869      2.122
REMARK INTER + INTRA:          -2.325
REMARK INTER:                  -2.325
REMARK INTRA:                   0.000
REMARK UNBOUND:                 0.000
REMARK  0 active torsions:
REMARK  status: ('A' for Active; 'I' for Inactive)
ROOT
ATOM      1  O   UNL d   1      17.704  27.573  49.235  0.00  0.00    -0.648 OA
ATOM      2  O   UNL d   1      18.209  29.213  49.472  0.00  0.00    -0.648 OA
ATOM      3  C   UNL d   1      18.752  28.332  48.083  0.00  0.00     0.129 C 
ATOM      4  C   UNL d   1      18.222  28.373  48.930  0.00  0.00     0.168 C 
ENDROOT
TORSDOF 0
ENDMDL
MODEL 4
REMARK VINA RESULT:    -2.284     43.699     44.081
REMARK INTER + INTRA:          -2.284
REMARK INTER:                  -2.284
REMARK INTRA:                   0.000
REMARK UNBOUND:                 0.000
REMARK  0 active torsions:
REMARK  status: ('A' for Active; 'I' for Inactive)
ROOT
ATOM      1  O   UNL d   1     -18.536  25.079  22.237  0.00  0.00    -0.648 OA
ATOM      2  O   UNL d   1     -17.272  26.224  21.938  0.00  0.00    -0.648 OA
ATOM      3  C   UNL d   1     -16.888  24.651  22.552  0.00  0.00     0.129 C 
ATOM      4  C   UNL d   1     -17.565  25.318  22.242  0.00  0.00     0.168 C 
ENDROOT
TORSDOF 0
ENDMDL
MODEL 5
REMARK VINA RESULT:    -2.283     12.759     13.008
REMARK INTER + INTRA:          -2.283
REMARK INTER:                  -2.283
REMARK INTRA:                   0.000
REMARK UNBOUND:                 0.000
REMARK  0 active torsions:
REMARK  status: ('A' for Active; 'I' for Inactive)
ROOT
ATOM      1  O   UNL d   1      26.847  22.423  45.708  0.00  0.00    -0.648 OA
ATOM      2  O   UNL d   1      26.737  21.629  47.243  0.00  0.00    -0.648 OA
ATOM      3  C   UNL d   1      27.059  20.708  45.812  0.00  0.00     0.129 C 
ATOM      4  C   UNL d   1      26.881  21.587  46.255  0.00  0.00     0.168 C 
ENDROOT
TORSDOF 0
ENDMDL
