MODEL 1
REMARK VINA RESULT:    -8.147      0.000      0.000
REMARK INTER + INTRA:          -8.053
REMARK INTER:                  -9.119
REMARK INTRA:                   1.066
REMARK UNBOUND:                 1.047
REMARK  3 active torsions:
REMARK  status: ('A' for Active; 'I' for Inactive)
REMARK    1  A    between atoms: O_2  and  C_10 
REMARK    2  A    between atoms: O_4  and  C_13 
REMARK    3  A    between atoms: C_7  and  C_9 
ROOT
ATOM      1  O   UNL d   1      18.344  29.465  47.135  0.00  0.00    -0.309 OA
ATOM      2  O   UNL d   1      16.427  27.489  45.943  0.00  0.00    -0.287 OA
ATOM      3  C   UNL d   1      16.882  28.542  47.241  0.00  0.00     0.081 A 
ATOM      4  C   UNL d   1      17.521  29.201  47.638  0.00  0.00     0.095 A 
ATOM      5  C   UNL d   1      18.528  29.070  46.235  0.00  0.00     0.090 A 
ATOM      6  C   UNL d   1      17.066  28.148  46.341  0.00  0.00     0.190 A 
ATOM      7  C   UNL d   1      16.021  28.258  47.753  0.00  0.00     0.085 A 
ATOM      8  C   UNL d   1      17.889  28.412  45.838  0.00  0.00     0.094 A 
ATOM      9  C   UNL d   1      17.344  29.620  48.575  0.00  0.00     0.075 A 
ATOM     10  C   UNL d   1      16.488  29.350  49.105  0.00  0.00     0.071 A 
ATOM     11  C   UNL d   1      15.823  28.665  48.691  0.00  0.00     0.074 A 
ENDROOT
BRANCH   5  12
ATOM     12  C   UNL d   1      19.351  29.334  45.732  0.00  0.00    -0.002 A 
ATOM     13  C   UNL d   1      19.272  29.839  44.873  0.00  0.00     0.014 A 
ATOM     14  C   UNL d   1      20.095  30.103  44.370  0.00  0.00     0.001 A 
ATOM     15  C   UNL d   1      20.997  29.862  44.726  0.00  0.00     0.000 A 
ATOM     16  C   UNL d   1      21.077  29.357  45.586  0.00  0.00     0.001 A 
ATOM     17  C   UNL d   1      20.254  29.093  46.089  0.00  0.00     0.014 A 
ENDBRANCH   5  12
BRANCH   7  18
ATOM     18  O   UNL d   1      15.389  27.599  47.346  0.00  0.00    -0.360 OA
ATOM     19  H   UNL d   1      15.164  27.134  47.688  0.00  0.00     0.217 HD
ENDBRANCH   7  18
BRANCH  10  20
ATOM     20  O   UNL d   1      16.308  29.747  50.005  0.00  0.00    -0.361 OA
ATOM     21  H   UNL d   1      16.397  30.353  50.100  0.00  0.00     0.217 HD
ENDBRANCH  10  20
TORSDOF 3
ENDMDL
MODEL 2
REMARK VINA RESULT:    -7.910      0.992      2.089
REMARK INTER + INTRA:          -7.789
REMARK INTER:                  -8.787
REMARK INTRA:                   0.999
REMARK UNBOUND:                 1.047
REMARK  3 active torsions:
REMARK  status: ('A' for Active; 'I' for Inactive)
REMARK    1  A    between atoms: O_2  and  C_10 
REMARK    2  A    between atoms: O_4  and  C_13 
REMARK    3  A    between atoms: C_7  and  C_9 
ROOT
ATOM      1  O   UNL d   1      17.321  28.407  46.496  0.00  0.00    -0.309 OA
ATOM      2  O   UNL d   1      17.677  29.372  49.314  0.00  0.00    -0.287 OA
ATOM      3  C   UNL d   1      16.670  28.705  48.074  0.00  0.00     0.081 A 
ATOM      4  C   UNL d   1      16.551  28.383  47.134  0.00  0.00     0.095 A 
ATOM      5  C   UNL d   1      18.209  28.753  46.798  0.00  0.00     0.090 A 
ATOM      6  C   UNL d   1      17.558  29.050  48.375  0.00  0.00     0.190 A 
ATOM      7  C   UNL d   1      15.877  28.686  48.749  0.00  0.00     0.085 A 
ATOM      8  C   UNL d   1      18.328  29.074  47.737  0.00  0.00     0.094 A 
ATOM      9  C   UNL d   1      15.631  28.021  46.805  0.00  0.00     0.075 A 
ATOM     10  C   UNL d   1      14.825  27.992  47.464  0.00  0.00     0.071 A 
ATOM     11  C   UNL d   1      14.949  28.327  48.442  0.00  0.00     0.074 A 
ENDROOT
BRANCH   5  12
ATOM     12  C   UNL d   1      18.979  28.777  46.160  0.00  0.00    -0.002 A 
ATOM     13  C   UNL d   1      19.143  29.593  45.605  0.00  0.00     0.014 A 
ATOM     14  C   UNL d   1      19.913  29.617  44.967  0.00  0.00     0.001 A 
ATOM     15  C   UNL d   1      20.518  28.825  44.884  0.00  0.00     0.000 A 
ATOM     16  C   UNL d   1      20.353  28.009  45.438  0.00  0.00     0.001 A 
ATOM     17  C   UNL d   1      19.584  27.985  46.076  0.00  0.00     0.014 A 
ENDBRANCH   5  12
BRANCH   7  18
ATOM     18  O   UNL d   1      16.008  29.010  49.686  0.00  0.00    -0.360 OA
ATOM     19  H   UNL d   1      15.729  28.718  50.156  0.00  0.00     0.217 HD
ENDBRANCH   7  18
BRANCH  10  20
ATOM     20  O   UNL d   1      13.938  27.646  47.159  0.00  0.00    -0.361 OA
ATOM     21  H   UNL d   1      13.792  27.050  47.245  0.00  0.00     0.217 HD
ENDBRANCH  10  20
TORSDOF 3
ENDMDL
MODEL 3
REMARK VINA RESULT:    -7.484      1.778      4.572
REMARK INTER + INTRA:          -7.312
REMARK INTER:                  -8.371
REMARK INTRA:                   1.059
REMARK UNBOUND:                 1.047
REMARK  3 active torsions:
REMARK  status: ('A' for Active; 'I' for Inactive)
REMARK    1  A    between atoms: O_2  and  C_10 
REMARK    2  A    between atoms: O_4  and  C_13 
REMARK    3  A    between atoms: C_7  and  C_9 
ROOT
ATOM      1  O   UNL d   1      19.455  29.238  46.486  0.00  0.00    -0.309 OA
ATOM      2  O   UNL d   1      17.843  27.939  44.316  0.00  0.00    -0.287 OA
ATOM      3  C   UNL d   1      19.315  28.675  44.854  0.00  0.00     0.081 A 
ATOM      4  C   UNL d   1      19.853  29.108  45.578  0.00  0.00     0.095 A 
ATOM      5  C   UNL d   1      18.521  28.934  46.671  0.00  0.00     0.090 A 
ATOM      6  C   UNL d   1      18.380  28.372  45.039  0.00  0.00     0.190 A 
ATOM      7  C   UNL d   1      19.715  28.534  43.903  0.00  0.00     0.085 A 
ATOM      8  C   UNL d   1      17.983  28.501  45.948  0.00  0.00     0.094 A 
ATOM      9  C   UNL d   1      20.828  29.429  45.401  0.00  0.00     0.075 A 
ATOM     10  C   UNL d   1      21.248  29.298  44.457  0.00  0.00     0.071 A 
ATOM     11  C   UNL d   1      20.688  28.847  43.703  0.00  0.00     0.074 A 
ENDROOT
BRANCH   5  12
ATOM     12  C   UNL d   1      18.124  29.064  47.580  0.00  0.00    -0.002 A 
ATOM     13  C   UNL d   1      18.480  28.549  48.360  0.00  0.00     0.014 A 
ATOM     14  C   UNL d   1      18.083  28.678  49.268  0.00  0.00     0.001 A 
ATOM     15  C   UNL d   1      17.329  29.323  49.397  0.00  0.00     0.000 A 
ATOM     16  C   UNL d   1      16.973  29.838  48.618  0.00  0.00     0.001 A 
ATOM     17  C   UNL d   1      17.370  29.708  47.709  0.00  0.00     0.014 A 
ENDBRANCH   5  12
BRANCH   7  18
ATOM     18  O   UNL d   1      19.169  28.100  43.187  0.00  0.00    -0.360 OA
ATOM     19  H   UNL d   1      18.919  28.444  42.737  0.00  0.00     0.217 HD
ENDBRANCH   7  18
BRANCH  10  20
ATOM     20  O   UNL d   1      22.183  29.603  44.276  0.00  0.00    -0.361 OA
ATOM     21  H   UNL d   1      22.437  29.509  43.718  0.00  0.00     0.217 HD
ENDBRANCH  10  20
TORSDOF 3
ENDMDL
MODEL 4
REMARK VINA RESULT:    -7.465     25.191     26.860
REMARK INTER + INTRA:          -7.291
REMARK INTER:                  -8.297
REMARK INTRA:                   1.006
REMARK UNBOUND:                 1.047
REMARK  3 active torsions:
REMARK  status: ('A' for Active; 'I' for Inactive)
REMARK    1  A    between atoms: O_2  and  C_10 
REMARK    2  A    between atoms: O_4  and  C_13 
REMARK    3  A    between atoms: C_7  and  C_9 
ROOT
ATOM      1  O   UNL d   1      -5.786  23.178  35.659  0.00  0.00    -0.309 OA
ATOM      2  O   UNL d   1      -5.284  25.990  34.741  0.00  0.00    -0.287 OA
ATOM      3  C   UNL d   1      -6.276  24.570  34.751  0.00  0.00     0.081 A 
ATOM      4  C   UNL d   1      -6.443  23.633  35.057  0.00  0.00     0.095 A 
ATOM      5  C   UNL d   1      -4.962  23.661  35.955  0.00  0.00     0.090 A 
ATOM      6  C   UNL d   1      -5.452  25.053  35.047  0.00  0.00     0.190 A 
ATOM      7  C   UNL d   1      -6.951  25.056  34.124  0.00  0.00     0.085 A 
ATOM      8  C   UNL d   1      -4.795  24.598  35.649  0.00  0.00     0.094 A 
ATOM      9  C   UNL d   1      -7.297  23.116  34.757  0.00  0.00     0.075 A 
ATOM     10  C   UNL d   1      -7.985  23.583  34.130  0.00  0.00     0.071 A 
ATOM     11  C   UNL d   1      -7.811  24.559  33.812  0.00  0.00     0.074 A 
ENDROOT
BRANCH   5  12
ATOM     12  C   UNL d   1      -4.306  23.207  36.557  0.00  0.00    -0.002 A 
ATOM     13  C   UNL d   1      -4.462  23.189  37.544  0.00  0.00     0.014 A 
ATOM     14  C   UNL d   1      -3.805  22.734  38.146  0.00  0.00     0.001 A 
ATOM     15  C   UNL d   1      -2.992  22.298  37.761  0.00  0.00     0.000 A 
ATOM     16  C   UNL d   1      -2.836  22.316  36.773  0.00  0.00     0.001 A 
ATOM     17  C   UNL d   1      -3.493  22.771  36.171  0.00  0.00     0.014 A 
ENDBRANCH   5  12
BRANCH   7  18
ATOM     18  O   UNL d   1      -6.773  25.993  33.825  0.00  0.00    -0.360 OA
ATOM     19  H   UNL d   1      -6.530  26.098  33.264  0.00  0.00     0.217 HD
ENDBRANCH   7  18
BRANCH  10  20
ATOM     20  O   UNL d   1      -8.808  23.097  33.836  0.00  0.00    -0.361 OA
ATOM     21  H   UNL d   1      -8.889  22.502  33.992  0.00  0.00     0.217 HD
ENDBRANCH  10  20
TORSDOF 3
ENDMDL
MODEL 5
REMARK VINA RESULT:    -7.408     28.206     29.515
REMARK INTER + INTRA:          -7.228
REMARK INTER:                  -8.360
REMARK INTRA:                   1.132
REMARK UNBOUND:                 1.047
REMARK  3 active torsions:
REMARK  status: ('A' for Active; 'I' for Inactive)
REMARK    1  A    between atoms: O_2  and  C_10 
REMARK    2  A    between atoms: O_4  and  C_13 
REMARK    3  A    between atoms: C_7  and  C_9 
ROOT
ATOM      1  O   UNL d   1      -7.778  23.730  32.807  0.00  0.00    -0.309 OA
ATOM      2  O   UNL d   1      -6.593  21.904  34.872  0.00  0.00    -0.287 OA
ATOM      3  C   UNL d   1      -7.356  23.402  34.455  0.00  0.00     0.081 A 
ATOM      4  C   UNL d   1      -7.750  24.011  33.767  0.00  0.00     0.095 A 
ATOM      5  C   UNL d   1      -7.410  22.841  32.536  0.00  0.00     0.090 A 
ATOM      6  C   UNL d   1      -6.988  22.513  34.184  0.00  0.00     0.190 A 
ATOM      7  C   UNL d   1      -7.320  23.682  35.457  0.00  0.00     0.085 A 
ATOM      8  C   UNL d   1      -7.016  22.232  33.224  0.00  0.00     0.094 A 
ATOM      9  C   UNL d   1      -8.137  24.941  34.034  0.00  0.00     0.075 A 
ATOM     10  C   UNL d   1      -8.112  25.240  35.031  0.00  0.00     0.071 A 
ATOM     11  C   UNL d   1      -7.701  24.607  35.747  0.00  0.00     0.074 A 
ENDROOT
BRANCH   5  12
ATOM     12  C   UNL d   1      -7.438  22.560  31.577  0.00  0.00    -0.002 A 
ATOM     13  C   UNL d   1      -8.308  22.544  31.085  0.00  0.00     0.014 A 
ATOM     14  C   UNL d   1      -8.336  22.263  30.126  0.00  0.00     0.001 A 
ATOM     15  C   UNL d   1      -7.492  21.998  29.658  0.00  0.00     0.000 A 
ATOM     16  C   UNL d   1      -6.622  22.014  30.150  0.00  0.00     0.001 A 
ATOM     17  C   UNL d   1      -6.594  22.295  31.109  0.00  0.00     0.014 A 
ENDBRANCH   5  12
BRANCH   7  18
ATOM     18  O   UNL d   1      -6.923  23.065  36.137  0.00  0.00    -0.360 OA
ATOM     19  H   UNL d   1      -6.409  23.229  36.441  0.00  0.00     0.217 HD
ENDBRANCH   7  18
BRANCH  10  20
ATOM     20  O   UNL d   1      -8.481  26.131  35.298  0.00  0.00    -0.361 OA
ATOM     21  H   UNL d   1      -8.462  26.308  35.892  0.00  0.00     0.217 HD
ENDBRANCH  10  20
TORSDOF 3
ENDMDL
