MODEL 1
REMARK VINA RESULT:    -6.658      0.000      0.000
REMARK INTER + INTRA:          -6.853
REMARK INTER:                  -6.853
REMARK INTRA:                   0.000
REMARK UNBOUND:                 0.000
REMARK  1 active torsions:
REMARK  status: ('A' for Active; 'I' for Inactive)
REMARK    1  A    between atoms: C_5  and  O_1 
ROOT
ATOM      1  C   UNL d   1      -6.553  35.239   5.900  0.00  0.00    -0.011 A 
ATOM      2  C   UNL d   1      -7.295  34.208   4.347  0.00  0.00    -0.034 A 
ATOM      3  C   UNL d   1      -6.735  35.138   4.921  0.00  0.00    -0.004 A 
ATOM      4  C   UNL d   1      -6.897  34.298   7.009  0.00  0.00     0.127 A 
ATOM      5  C   UNL d   1      -5.881  36.561   5.770  0.00  0.00     0.013 A 
ATOM      6  C   UNL d   1      -7.297  33.709   6.308  0.00  0.00     0.038 A 
ATOM      7  C   UNL d   1      -6.063  36.460   4.792  0.00  0.00     0.006 A 
ATOM      8  C   UNL d   1      -6.371  35.341   6.878  0.00  0.00     0.018 C 
ATOM      9  C   UNL d   1      -7.543  33.970   3.408  0.00  0.00     0.016 C 
ATOM     10  C   UNL d   1      -7.756  33.320   4.365  0.00  0.00     0.016 C 
ENDROOT
BRANCH   4  11
ATOM     11  O   UNL d   1      -6.794  34.245   8.003  0.00  0.00    -0.395 OA
ATOM     12  H   UNL d   1      -7.227  33.964   8.345  0.00  0.00     0.210 HD
ENDBRANCH   4  11
TORSDOF 1
ENDMDL
MODEL 2
REMARK VINA RESULT:    -6.534      0.475      2.442
REMARK INTER + INTRA:          -6.725
REMARK INTER:                  -6.725
REMARK INTRA:                   0.000
REMARK UNBOUND:                 0.000
REMARK  1 active torsions:
REMARK  status: ('A' for Active; 'I' for Inactive)
REMARK    1  A    between atoms: C_5  and  O_1 
ROOT
ATOM      1  C   UNL d   1      -7.005  34.328   5.590  0.00  0.00    -0.011 A 
ATOM      2  C   UNL d   1      -6.157  36.001   4.876  0.00  0.00    -0.034 A 
ATOM      3  C   UNL d   1      -6.733  34.918   4.828  0.00  0.00    -0.004 A 
ATOM      4  C   UNL d   1      -6.806  34.555   7.054  0.00  0.00     0.127 A 
ATOM      5  C   UNL d   1      -7.609  33.275   4.729  0.00  0.00     0.013 A 
ATOM      6  C   UNL d   1      -6.364  35.415   6.802  0.00  0.00     0.038 A 
ATOM      7  C   UNL d   1      -7.338  33.864   3.968  0.00  0.00     0.006 A 
ATOM      8  C   UNL d   1      -7.276  33.739   6.351  0.00  0.00     0.018 C 
ATOM      9  C   UNL d   1      -5.829  36.686   4.225  0.00  0.00     0.016 C 
ATOM     10  C   UNL d   1      -5.735  36.744   5.397  0.00  0.00     0.016 C 
ENDROOT
BRANCH   4  11
ATOM     11  O   UNL d   1      -7.007  34.089   7.917  0.00  0.00    -0.395 OA
ATOM     12  H   UNL d   1      -6.664  33.605   8.095  0.00  0.00     0.210 HD
ENDBRANCH   4  11
TORSDOF 1
ENDMDL
MODEL 3
REMARK VINA RESULT:    -6.177      1.510      3.082
REMARK INTER + INTRA:          -6.358
REMARK INTER:                  -6.358
REMARK INTRA:                   0.000
REMARK UNBOUND:                 0.000
REMARK  1 active torsions:
REMARK  status: ('A' for Active; 'I' for Inactive)
REMARK    1  A    between atoms: C_5  and  O_1 
ROOT
ATOM      1  C   UNL d   1      -6.977  34.386   5.604  0.00  0.00    -0.011 A 
ATOM      2  C   UNL d   1      -6.015  36.124   5.326  0.00  0.00    -0.034 A 
ATOM      3  C   UNL d   1      -6.443  35.157   5.950  0.00  0.00    -0.004 A 
ATOM      4  C   UNL d   1      -7.445  34.135   4.206  0.00  0.00     0.127 A 
ATOM      5  C   UNL d   1      -7.082  33.699   6.921  0.00  0.00     0.013 A 
ATOM      6  C   UNL d   1      -6.994  34.993   3.963  0.00  0.00     0.038 A 
ATOM      7  C   UNL d   1      -6.547  34.470   7.267  0.00  0.00     0.006 A 
ATOM      8  C   UNL d   1      -7.512  33.615   5.258  0.00  0.00     0.018 C 
ATOM      9  C   UNL d   1      -5.483  36.947   5.524  0.00  0.00     0.016 C 
ATOM     10  C   UNL d   1      -5.908  36.635   4.473  0.00  0.00     0.016 C 
ENDROOT
BRANCH   4  11
ATOM     11  O   UNL d   1      -7.968  33.444   3.706  0.00  0.00    -0.395 OA
ATOM     12  H   UNL d   1      -8.507  33.240   3.932  0.00  0.00     0.210 HD
ENDBRANCH   4  11
TORSDOF 1
ENDMDL
MODEL 4
REMARK VINA RESULT:    -6.167      1.560      2.707
REMARK INTER + INTRA:          -6.348
REMARK INTER:                  -6.348
REMARK INTRA:                   0.000
REMARK UNBOUND:                 0.000
REMARK  1 active torsions:
REMARK  status: ('A' for Active; 'I' for Inactive)
REMARK    1  A    between atoms: C_5  and  O_1 
ROOT
ATOM      1  C   UNL d   1      -6.842  34.458   4.933  0.00  0.00    -0.011 A 
ATOM      2  C   UNL d   1      -5.913  32.891   5.772  0.00  0.00    -0.034 A 
ATOM      3  C   UNL d   1      -6.626  33.483   4.966  0.00  0.00    -0.004 A 
ATOM      4  C   UNL d   1      -6.376  35.543   5.850  0.00  0.00     0.127 A 
ATOM      5  C   UNL d   1      -7.713  34.357   3.730  0.00  0.00     0.013 A 
ATOM      6  C   UNL d   1      -5.873  34.833   6.341  0.00  0.00     0.038 A 
ATOM      7  C   UNL d   1      -7.497  33.381   3.763  0.00  0.00     0.006 A 
ATOM      8  C   UNL d   1      -7.058  35.434   4.900  0.00  0.00     0.018 C 
ATOM      9  C   UNL d   1      -5.611  31.951   5.931  0.00  0.00     0.016 C 
ATOM     10  C   UNL d   1      -5.317  32.890   6.576  0.00  0.00     0.016 C 
ENDROOT
BRANCH   4  11
ATOM     11  O   UNL d   1      -6.490  36.532   5.958  0.00  0.00    -0.395 OA
ATOM     12  H   UNL d   1      -6.882  36.840   5.591  0.00  0.00     0.210 HD
ENDBRANCH   4  11
TORSDOF 1
ENDMDL
MODEL 5
REMARK VINA RESULT:    -6.134      1.425      2.352
REMARK INTER + INTRA:          -6.314
REMARK INTER:                  -6.314
REMARK INTRA:                   0.000
REMARK UNBOUND:                 0.000
REMARK  1 active torsions:
REMARK  status: ('A' for Active; 'I' for Inactive)
REMARK    1  A    between atoms: C_5  and  O_1 
ROOT
ATOM      1  C   UNL d   1      -6.417  35.361   5.901  0.00  0.00    -0.011 A 
ATOM      2  C   UNL d   1      -7.285  34.322   4.422  0.00  0.00    -0.034 A 
ATOM      3  C   UNL d   1      -6.939  34.574   5.572  0.00  0.00    -0.004 A 
ATOM      4  C   UNL d   1      -5.873  36.509   5.112  0.00  0.00     0.127 A 
ATOM      5  C   UNL d   1      -6.424  34.935   7.328  0.00  0.00     0.013 A 
ATOM      6  C   UNL d   1      -6.271  36.069   4.308  0.00  0.00     0.038 A 
ATOM      7  C   UNL d   1      -6.946  34.148   6.999  0.00  0.00     0.006 A 
ATOM      8  C   UNL d   1      -5.895  36.149   6.230  0.00  0.00     0.018 C 
ATOM      9  C   UNL d   1      -7.793  33.600   3.951  0.00  0.00     0.016 C 
ATOM     10  C   UNL d   1      -7.317  34.551   3.448  0.00  0.00     0.016 C 
ENDROOT
BRANCH   4  11
ATOM     11  O   UNL d   1      -5.350  37.347   5.274  0.00  0.00    -0.395 OA
ATOM     12  H   UNL d   1      -5.636  37.854   5.484  0.00  0.00     0.210 HD
ENDBRANCH   4  11
TORSDOF 1
ENDMDL
