MODEL 1
REMARK VINA RESULT:   -10.945      0.000      0.000
REMARK INTER + INTRA:         -12.190
REMARK INTER:                 -13.521
REMARK INTRA:                   1.331
REMARK UNBOUND:                 1.314
REMARK  6 active torsions:
REMARK  status: ('A' for Active; 'I' for Inactive)
REMARK    1  A    between atoms: C_22  and  O_1 
REMARK    2  A    between atoms: C_24  and  O_2 
REMARK    3  A    between atoms: O_3  and  C_30 
REMARK    4  A    between atoms: O_4  and  C_33 
REMARK    5  A    between atoms: C_14  and  C_30 
REMARK    6  A    between atoms: C_19  and  C_33 
ROOT
ATOM      1  C   UNL d   1      -2.668  35.300   5.974  0.00  0.00    -0.028 A 
ATOM      2  C   UNL d   1      -2.189  34.448   6.185  0.00  0.00     0.007 A 
ATOM      3  C   UNL d   1      -1.168  34.446   6.393  0.00  0.00    -0.033 A 
ATOM      4  C   UNL d   1      -3.648  35.287   5.776  0.00  0.00    -0.013 A 
ATOM      5  C   UNL d   1      -0.640  35.343   6.381  0.00  0.00     0.007 A 
ATOM      6  C   UNL d   1      -2.160  36.209   5.956  0.00  0.00     0.011 A 
ATOM      7  C   UNL d   1      -4.150  34.422   5.790  0.00  0.00    -0.069 A 
ATOM      8  C   UNL d   1      -1.139  36.231   6.161  0.00  0.00     0.007 A 
ATOM      9  C   UNL d   1       0.424  35.365   6.594  0.00  0.00     0.010 A 
ATOM     10  C   UNL d   1      -5.171  34.392   5.586  0.00  0.00     0.038 A 
ATOM     11  C   UNL d   1      -2.690  33.583   6.199  0.00  0.00     0.033 A 
ATOM     12  C   UNL d   1      -0.670  33.509   6.619  0.00  0.00     0.044 A 
ATOM     13  C   UNL d   1      -4.133  36.183   5.558  0.00  0.00     0.016 A 
ATOM     14  C   UNL d   1      -5.676  35.276   5.366  0.00  0.00     0.053 A 
ATOM     15  C   UNL d   1      -2.826  36.274   5.812  0.00  0.00     0.016 C 
ATOM     16  C   UNL d   1      -5.154  36.177   5.352  0.00  0.00     0.022 A 
ATOM     17  C   UNL d   1       0.944  34.442   6.823  0.00  0.00     0.157 A 
ATOM     18  C   UNL d   1      -3.671  33.570   6.001  0.00  0.00    -0.022 A 
ATOM     19  C   UNL d   1       0.393  33.507   6.836  0.00  0.00     0.148 A 
ATOM     20  C   UNL d   1      -1.676  33.585   6.405  0.00  0.00     0.016 C 
ATOM     21  C   UNL d   1      -3.465  36.266   5.683  0.00  0.00     0.021 C 
ATOM     22  C   UNL d   1      -5.693  33.442   5.607  0.00  0.00    -0.005 A 
ATOM     23  C   UNL d   1      -6.740  35.270   5.150  0.00  0.00     0.021 A 
ATOM     24  C   UNL d   1      -6.757  33.411   5.395  0.00  0.00    -0.014 A 
ATOM     25  C   UNL d   1       0.433  36.357   6.463  0.00  0.00     0.020 C 
ATOM     26  C   UNL d   1      -7.284  34.331   5.165  0.00  0.00     0.006 A 
ATOM     27  C   UNL d   1      -5.198  32.599   5.820  0.00  0.00     0.011 C 
ATOM     28  C   UNL d   1      -7.248  32.540   5.411  0.00  0.00     0.010 C 
ENDROOT
BRANCH   9  29
ATOM     29  C   UNL d   1       1.277  35.876   6.699  0.00  0.00     0.176 C 
BRANCH  29  30
ATOM     30  O   UNL d   1       1.253  36.849   6.928  0.00  0.00    -0.400 OA
ATOM     31  H   UNL d   1       1.473  37.267   6.526  0.00  0.00     0.209 HD
ENDBRANCH  29  30
ENDBRANCH   9  29
BRANCH  17  32
ATOM     32  O   UNL d   1       1.924  34.450   7.021  0.00  0.00    -0.392 OA
ATOM     33  H   UNL d   1       2.122  34.458   7.609  0.00  0.00     0.210 HD
ENDBRANCH  17  32
BRANCH  19  34
ATOM     34  O   UNL d   1       0.862  32.649   7.046  0.00  0.00    -0.393 OA
ATOM     35  H   UNL d   1       1.369  32.652   7.403  0.00  0.00     0.210 HD
ENDBRANCH  19  34
BRANCH  14  36
ATOM     36  C   UNL d   1      -6.162  36.124   5.154  0.00  0.00     0.149 C 
ATOM     37  O   UNL d   1      -6.156  36.482   4.220  0.00  0.00    -0.649 OA
BRANCH  36  38
ATOM     38  O   UNL d   1      -6.653  36.613   5.874  0.00  0.00    -0.776 OA
ATOM     39  H   UNL d   1      -7.028  37.084   5.728  0.00  0.00     0.167 HD
ENDBRANCH  36  38
ENDBRANCH  14  36
TORSDOF 6
ENDMDL
MODEL 2
REMARK VINA RESULT:   -10.830      1.715      3.097
REMARK INTER + INTRA:         -12.048
REMARK INTER:                 -13.419
REMARK INTRA:                   1.371
REMARK UNBOUND:                 1.314
REMARK  6 active torsions:
REMARK  status: ('A' for Active; 'I' for Inactive)
REMARK    1  A    between atoms: C_22  and  O_1 
REMARK    2  A    between atoms: C_24  and  O_2 
REMARK    3  A    between atoms: O_3  and  C_30 
REMARK    4  A    between atoms: O_4  and  C_33 
REMARK    5  A    between atoms: C_14  and  C_30 
REMARK    6  A    between atoms: C_19  and  C_33 
ROOT
ATOM      1  C   UNL d   1      -2.867  34.908   6.335  0.00  0.00    -0.028 A 
ATOM      2  C   UNL d   1      -2.954  35.857   6.030  0.00  0.00     0.007 A 
ATOM      3  C   UNL d   1      -2.177  36.536   6.168  0.00  0.00    -0.033 A 
ATOM      4  C   UNL d   1      -3.622  34.267   6.196  0.00  0.00    -0.013 A 
ATOM      5  C   UNL d   1      -1.297  36.223   6.629  0.00  0.00     0.007 A 
ATOM      6  C   UNL d   1      -1.997  34.574   6.799  0.00  0.00     0.011 A 
ATOM      7  C   UNL d   1      -4.464  34.575   5.752  0.00  0.00    -0.069 A 
ATOM      8  C   UNL d   1      -1.207  35.235   6.947  0.00  0.00     0.007 A 
ATOM      9  C   UNL d   1      -0.473  36.913   6.784  0.00  0.00     0.010 A 
ATOM     10  C   UNL d   1      -5.259  33.919   5.600  0.00  0.00     0.038 A 
ATOM     11  C   UNL d   1      -3.796  36.164   5.586  0.00  0.00     0.033 A 
ATOM     12  C   UNL d   1      -2.294  37.560   5.829  0.00  0.00     0.044 A 
ATOM     13  C   UNL d   1      -3.517  33.282   6.519  0.00  0.00     0.016 A 
ATOM     14  C   UNL d   1      -5.176  32.929   5.915  0.00  0.00     0.053 A 
ATOM     15  C   UNL d   1      -2.471  34.083   6.737  0.00  0.00     0.016 C 
ATOM     16  C   UNL d   1      -4.299  32.609   6.378  0.00  0.00     0.022 A 
ATOM     17  C   UNL d   1      -0.567  37.941   6.453  0.00  0.00     0.157 A 
ATOM     18  C   UNL d   1      -4.551  35.523   5.447  0.00  0.00    -0.022 A 
ATOM     19  C   UNL d   1      -1.484  38.268   5.973  0.00  0.00     0.148 A 
ATOM     20  C   UNL d   1      -3.021  36.836   5.725  0.00  0.00     0.016 C 
ATOM     21  C   UNL d   1      -2.963  33.665   6.646  0.00  0.00     0.021 C 
ATOM     22  C   UNL d   1      -6.162  34.275   5.117  0.00  0.00    -0.005 A 
ATOM     23  C   UNL d   1      -5.990  32.228   5.768  0.00  0.00     0.021 A 
ATOM     24  C   UNL d   1      -6.990  33.592   4.959  0.00  0.00    -0.014 A 
ATOM     25  C   UNL d   1       0.060  36.185   7.216  0.00  0.00     0.020 C 
ATOM     26  C   UNL d   1      -6.903  32.561   5.287  0.00  0.00     0.006 A 
ATOM     27  C   UNL d   1      -6.231  35.228   4.818  0.00  0.00     0.011 C 
ATOM     28  C   UNL d   1      -7.827  33.910   4.514  0.00  0.00     0.010 C 
ENDROOT
BRANCH   9  29
ATOM     29  C   UNL d   1       0.449  37.101   7.122  0.00  0.00     0.176 C 
BRANCH  29  30
ATOM     30  O   UNL d   1       1.141  36.380   7.117  0.00  0.00    -0.400 OA
ATOM     31  H   UNL d   1       1.275  36.083   6.589  0.00  0.00     0.209 HD
ENDBRANCH  29  30
ENDBRANCH   9  29
BRANCH  17  32
ATOM     32  O   UNL d   1       0.185  38.585   6.590  0.00  0.00    -0.392 OA
ATOM     33  H   UNL d   1       0.407  38.910   6.111  0.00  0.00     0.210 HD
ENDBRANCH  17  32
BRANCH  19  34
ATOM     34  O   UNL d   1      -1.581  39.214   5.664  0.00  0.00    -0.393 OA
ATOM     35  H   UNL d   1      -1.908  39.618   6.002  0.00  0.00     0.210 HD
ENDBRANCH  19  34
BRANCH  14  36
ATOM     36  C   UNL d   1      -5.096  31.979   6.218  0.00  0.00     0.149 C 
ATOM     37  O   UNL d   1      -5.247  31.747   7.178  0.00  0.00    -0.649 OA
BRANCH  36  38
ATOM     38  O   UNL d   1      -4.866  31.263   5.560  0.00  0.00    -0.776 OA
ATOM     39  H   UNL d   1      -4.480  30.806   5.722  0.00  0.00     0.167 HD
ENDBRANCH  36  38
ENDBRANCH  14  36
TORSDOF 6
ENDMDL
MODEL 3
REMARK VINA RESULT:   -10.637      1.905      5.569
REMARK INTER + INTRA:         -11.810
REMARK INTER:                 -13.164
REMARK INTRA:                   1.354
REMARK UNBOUND:                 1.314
REMARK  6 active torsions:
REMARK  status: ('A' for Active; 'I' for Inactive)
REMARK    1  A    between atoms: C_22  and  O_1 
REMARK    2  A    between atoms: C_24  and  O_2 
REMARK    3  A    between atoms: O_3  and  C_30 
REMARK    4  A    between atoms: O_4  and  C_33 
REMARK    5  A    between atoms: C_14  and  C_30 
REMARK    6  A    between atoms: C_19  and  C_33 
ROOT
ATOM      1  C   UNL d   1      -3.977  35.358   5.850  0.00  0.00    -0.028 A 
ATOM      2  C   UNL d   1      -3.836  34.371   5.930  0.00  0.00     0.007 A 
ATOM      3  C   UNL d   1      -4.630  33.707   5.812  0.00  0.00    -0.033 A 
ATOM      4  C   UNL d   1      -3.206  35.984   5.966  0.00  0.00    -0.013 A 
ATOM      5  C   UNL d   1      -5.582  34.075   5.608  0.00  0.00     0.007 A 
ATOM      6  C   UNL d   1      -4.921  35.748   5.647  0.00  0.00     0.011 A 
ATOM      7  C   UNL d   1      -2.294  35.623   6.162  0.00  0.00    -0.069 A 
ATOM      8  C   UNL d   1      -5.729  35.102   5.525  0.00  0.00     0.007 A 
ATOM      9  C   UNL d   1      -6.424  33.401   5.481  0.00  0.00     0.010 A 
ATOM     10  C   UNL d   1      -1.481  36.263   6.285  0.00  0.00     0.038 A 
ATOM     11  C   UNL d   1      -2.925  34.010   6.126  0.00  0.00     0.033 A 
ATOM     12  C   UNL d   1      -4.453  32.640   5.903  0.00  0.00     0.044 A 
ATOM     13  C   UNL d   1      -3.369  37.010   5.880  0.00  0.00     0.016 A 
ATOM     14  C   UNL d   1      -1.620  37.292   6.204  0.00  0.00     0.053 A 
ATOM     15  C   UNL d   1      -4.442  36.233   5.714  0.00  0.00     0.016 C 
ATOM     16  C   UNL d   1      -2.570  37.668   6.000  0.00  0.00     0.022 A 
ATOM     17  C   UNL d   1      -6.272  32.331   5.568  0.00  0.00     0.157 A 
ATOM     18  C   UNL d   1      -2.153  34.637   6.242  0.00  0.00    -0.022 A 
ATOM     19  C   UNL d   1      -5.279  31.948   5.780  0.00  0.00     0.148 A 
ATOM     20  C   UNL d   1      -3.715  33.353   6.008  0.00  0.00     0.016 C 
ATOM     21  C   UNL d   1      -3.939  36.642   5.789  0.00  0.00     0.021 C 
ATOM     22  C   UNL d   1      -0.502  35.849   6.497  0.00  0.00    -0.005 A 
ATOM     23  C   UNL d   1      -0.789  37.978   6.328  0.00  0.00     0.021 A 
ATOM     24  C   UNL d   1       0.345  36.515   6.626  0.00  0.00    -0.014 A 
ATOM     25  C   UNL d   1      -7.029  34.182   5.322  0.00  0.00     0.020 C 
ATOM     26  C   UNL d   1       0.201  37.587   6.540  0.00  0.00     0.006 A 
ATOM     27  C   UNL d   1      -0.379  34.858   6.574  0.00  0.00     0.011 C 
ATOM     28  C   UNL d   1       1.252  36.143   6.821  0.00  0.00     0.010 C 
ENDROOT
BRANCH   9  29
ATOM     29  C   UNL d   1      -7.396  33.253   5.301  0.00  0.00     0.176 C 
BRANCH  29  30
ATOM     30  O   UNL d   1      -7.858  33.775   4.584  0.00  0.00    -0.400 OA
ATOM     31  H   UNL d   1      -8.441  33.970   4.669  0.00  0.00     0.209 HD
ENDBRANCH  29  30
ENDBRANCH   9  29
BRANCH  17  32
ATOM     32  O   UNL d   1      -7.040  31.702   5.452  0.00  0.00    -0.392 OA
ATOM     33  H   UNL d   1      -7.612  31.924   5.361  0.00  0.00     0.210 HD
ENDBRANCH  17  32
BRANCH  19  34
ATOM     34  O   UNL d   1      -5.127  30.963   5.862  0.00  0.00    -0.393 OA
ATOM     35  H   UNL d   1      -5.095  30.699   6.423  0.00  0.00     0.210 HD
ENDBRANCH  19  34
BRANCH  14  36
ATOM     36  C   UNL d   1      -1.753  38.280   6.125  0.00  0.00     0.149 C 
ATOM     37  O   UNL d   1      -2.016  38.814   6.929  0.00  0.00    -0.649 OA
BRANCH  36  38
ATOM     38  O   UNL d   1      -1.624  38.734   5.244  0.00  0.00    -0.776 OA
ATOM     39  H   UNL d   1      -1.072  38.714   4.964  0.00  0.00     0.167 HD
ENDBRANCH  36  38
ENDBRANCH  14  36
TORSDOF 6
ENDMDL
MODEL 4
REMARK VINA RESULT:   -10.379      1.044      6.297
REMARK INTER + INTRA:         -11.491
REMARK INTER:                 -12.797
REMARK INTRA:                   1.306
REMARK UNBOUND:                 1.314
REMARK  6 active torsions:
REMARK  status: ('A' for Active; 'I' for Inactive)
REMARK    1  A    between atoms: C_22  and  O_1 
REMARK    2  A    between atoms: C_24  and  O_2 
REMARK    3  A    between atoms: O_3  and  C_30 
REMARK    4  A    between atoms: O_4  and  C_33 
REMARK    5  A    between atoms: C_14  and  C_30 
REMARK    6  A    between atoms: C_19  and  C_33 
ROOT
ATOM      1  C   UNL d   1      -3.344  34.222   6.173  0.00  0.00    -0.028 A 
ATOM      2  C   UNL d   1      -3.751  35.055   5.798  0.00  0.00     0.007 A 
ATOM      3  C   UNL d   1      -4.732  35.060   5.447  0.00  0.00    -0.033 A 
ATOM      4  C   UNL d   1      -2.402  34.232   6.506  0.00  0.00    -0.013 A 
ATOM      5  C   UNL d   1      -5.296  34.186   5.487  0.00  0.00     0.007 A 
ATOM      6  C   UNL d   1      -3.890  33.337   6.222  0.00  0.00     0.011 A 
ATOM      7  C   UNL d   1      -1.866  35.076   6.465  0.00  0.00    -0.069 A 
ATOM      8  C   UNL d   1      -4.872  33.318   5.877  0.00  0.00     0.007 A 
ATOM      9  C   UNL d   1      -6.320  34.167   5.127  0.00  0.00     0.010 A 
ATOM     10  C   UNL d   1      -0.883  35.102   6.808  0.00  0.00     0.038 A 
ATOM     11  C   UNL d   1      -3.215  35.898   5.757  0.00  0.00     0.033 A 
ATOM     12  C   UNL d   1      -5.152  35.976   5.045  0.00  0.00     0.044 A 
ATOM     13  C   UNL d   1      -1.992  33.356   6.894  0.00  0.00     0.016 A 
ATOM     14  C   UNL d   1      -0.452  34.238   7.200  0.00  0.00     0.053 A 
ATOM     15  C   UNL d   1      -3.254  33.271   6.467  0.00  0.00     0.016 C 
ATOM     16  C   UNL d   1      -1.010  33.359   7.243  0.00  0.00     0.022 A 
ATOM     17  C   UNL d   1      -6.761  35.070   4.721  0.00  0.00     0.157 A 
ATOM     18  C   UNL d   1      -2.273  35.909   6.090  0.00  0.00    -0.022 A 
ATOM     19  C   UNL d   1      -6.174  35.981   4.679  0.00  0.00     0.148 A 
ATOM     20  C   UNL d   1      -4.190  35.899   5.409  0.00  0.00     0.016 C 
ATOM     21  C   UNL d   1      -2.639  33.277   6.685  0.00  0.00     0.021 C 
ATOM     22  C   UNL d   1      -0.321  36.028   6.753  0.00  0.00    -0.005 A 
ATOM     23  C   UNL d   1       0.570  34.241   7.563  0.00  0.00     0.021 A 
ATOM     24  C   UNL d   1       0.703  36.055   7.111  0.00  0.00    -0.014 A 
ATOM     25  C   UNL d   1      -6.390  33.199   5.369  0.00  0.00     0.020 C 
ATOM     26  C   UNL d   1       1.152  35.156   7.519  0.00  0.00     0.006 A 
ATOM     27  C   UNL d   1      -0.744  36.852   6.375  0.00  0.00     0.011 C 
ATOM     28  C   UNL d   1       1.229  36.904   7.064  0.00  0.00     0.010 C 
ENDROOT
BRANCH   9  29
ATOM     29  C   UNL d   1      -7.172  33.670   4.960  0.00  0.00     0.176 C 
BRANCH  29  30
ATOM     30  O   UNL d   1      -7.380  32.844   5.483  0.00  0.00    -0.400 OA
ATOM     31  H   UNL d   1      -6.963  32.615   5.880  0.00  0.00     0.209 HD
ENDBRANCH  29  30
ENDBRANCH   9  29
BRANCH  17  32
ATOM     32  O   UNL d   1      -7.704  35.064   4.386  0.00  0.00    -0.392 OA
ATOM     33  H   UNL d   1      -8.154  34.812   4.731  0.00  0.00     0.210 HD
ENDBRANCH  17  32
BRANCH  19  34
ATOM     34  O   UNL d   1      -6.571  36.820   4.307  0.00  0.00    -0.393 OA
ATOM     35  H   UNL d   1      -7.187  36.886   4.280  0.00  0.00     0.210 HD
ENDBRANCH  19  34
BRANCH  14  36
ATOM     36  C   UNL d   1      -0.038  33.409   7.576  0.00  0.00     0.149 C 
ATOM     37  O   UNL d   1      -0.121  33.208   8.552  0.00  0.00    -0.649 OA
BRANCH  36  38
ATOM     38  O   UNL d   1       0.458  32.781   6.977  0.00  0.00    -0.776 OA
ATOM     39  H   UNL d   1       0.720  32.992   6.456  0.00  0.00     0.167 HD
ENDBRANCH  36  38
ENDBRANCH  14  36
TORSDOF 6
ENDMDL
MODEL 5
REMARK VINA RESULT:   -10.047      1.322      5.732
REMARK INTER + INTRA:         -11.082
REMARK INTER:                 -12.398
REMARK INTRA:                   1.316
REMARK UNBOUND:                 1.314
REMARK  6 active torsions:
REMARK  status: ('A' for Active; 'I' for Inactive)
REMARK    1  A    between atoms: C_22  and  O_1 
REMARK    2  A    between atoms: C_24  and  O_2 
REMARK    3  A    between atoms: O_3  and  C_30 
REMARK    4  A    between atoms: O_4  and  C_33 
REMARK    5  A    between atoms: C_14  and  C_30 
REMARK    6  A    between atoms: C_19  and  C_33 
ROOT
ATOM      1  C   UNL d   1      -3.473  35.267   5.908  0.00  0.00    -0.028 A 
ATOM      2  C   UNL d   1      -3.779  34.324   6.037  0.00  0.00     0.007 A 
ATOM      3  C   UNL d   1      -4.739  34.030   5.760  0.00  0.00    -0.033 A 
ATOM      4  C   UNL d   1      -2.548  35.535   6.179  0.00  0.00    -0.013 A 
ATOM      5  C   UNL d   1      -5.388  34.728   5.342  0.00  0.00     0.007 A 
ATOM      6  C   UNL d   1      -4.105  35.982   5.492  0.00  0.00     0.011 A 
ATOM      7  C   UNL d   1      -1.929  34.859   6.580  0.00  0.00    -0.069 A 
ATOM      8  C   UNL d   1      -5.070  35.711   5.207  0.00  0.00     0.007 A 
ATOM      9  C   UNL d   1      -6.394  34.446   5.045  0.00  0.00     0.010 A 
ATOM     10  C   UNL d   1      -0.963  35.122   6.867  0.00  0.00     0.038 A 
ATOM     11  C   UNL d   1      -3.160  33.648   6.438  0.00  0.00     0.033 A 
ATOM     12  C   UNL d   1      -5.048  33.001   5.910  0.00  0.00     0.044 A 
ATOM     13  C   UNL d   1      -2.244  36.521   6.038  0.00  0.00     0.016 A 
ATOM     14  C   UNL d   1      -0.638  36.103   6.736  0.00  0.00     0.053 A 
ATOM     15  C   UNL d   1      -3.490  36.234   5.653  0.00  0.00     0.016 C 
ATOM     16  C   UNL d   1      -1.282  36.807   6.318  0.00  0.00     0.022 A 
ATOM     17  C   UNL d   1      -6.725  33.423   5.185  0.00  0.00     0.157 A 
ATOM     18  C   UNL d   1      -2.235  33.916   6.709  0.00  0.00    -0.022 A 
ATOM     19  C   UNL d   1      -6.048  32.695   5.621  0.00  0.00     0.148 A 
ATOM     20  C   UNL d   1      -4.114  33.360   6.161  0.00  0.00     0.016 C 
ATOM     21  C   UNL d   1      -2.887  36.409   5.830  0.00  0.00     0.021 C 
ATOM     22  C   UNL d   1      -0.310  34.373   7.300  0.00  0.00    -0.005 A 
ATOM     23  C   UNL d   1       0.364  36.401   7.027  0.00  0.00     0.021 A 
ATOM     24  C   UNL d   1       0.696  34.647   7.599  0.00  0.00    -0.014 A 
ATOM     25  C   UNL d   1      -6.570  35.382   4.740  0.00  0.00     0.020 C 
ATOM     26  C   UNL d   1       1.035  35.668   7.462  0.00  0.00     0.006 A 
ATOM     27  C   UNL d   1      -0.633  33.433   7.422  0.00  0.00     0.011 C 
ATOM     28  C   UNL d   1       1.306  33.963   7.999  0.00  0.00     0.010 C 
ENDROOT
BRANCH   9  29
ATOM     29  C   UNL d   1      -7.283  34.685   4.656  0.00  0.00     0.176 C 
BRANCH  29  30
ATOM     30  O   UNL d   1      -7.358  35.442   4.008  0.00  0.00    -0.400 OA
ATOM     31  H   UNL d   1      -6.954  35.912   4.031  0.00  0.00     0.209 HD
ENDBRANCH  29  30
ENDBRANCH   9  29
BRANCH  17  32
ATOM     32  O   UNL d   1      -7.649  33.151   4.915  0.00  0.00    -0.392 OA
ATOM     33  H   UNL d   1      -8.130  33.275   5.287  0.00  0.00     0.210 HD
ENDBRANCH  17  32
BRANCH  19  34
ATOM     34  O   UNL d   1      -6.344  31.750   5.755  0.00  0.00    -0.393 OA
ATOM     35  H   UNL d   1      -6.635  31.587   6.277  0.00  0.00     0.210 HD
ENDBRANCH  19  34
BRANCH  14  36
ATOM     36  C   UNL d   1      -0.325  37.044   6.609  0.00  0.00     0.149 C 
ATOM     37  O   UNL d   1      -0.421  37.706   7.353  0.00  0.00    -0.649 OA
BRANCH  36  38
ATOM     38  O   UNL d   1       0.083  37.324   5.741  0.00  0.00    -0.776 OA
ATOM     39  H   UNL d   1       0.534  37.749   5.733  0.00  0.00     0.167 HD
ENDBRANCH  36  38
ENDBRANCH  14  36
TORSDOF 6
ENDMDL
