MODEL 1
REMARK VINA RESULT:    -8.122      0.000      0.000
REMARK INTER + INTRA:          -5.298
REMARK INTER:                  -8.840
REMARK INTRA:                   3.541
REMARK UNBOUND:                 3.536
REMARK  2 active torsions:
REMARK  status: ('A' for Active; 'I' for Inactive)
REMARK    1  A    between atoms: C_5  and  O_1 
REMARK    2  A    between atoms: C_4  and  C_9 
ROOT
ATOM      1  C   UNL d   1      -6.904  34.625   4.735  0.00  0.00     0.028 A 
ATOM      2  C   UNL d   1      -6.468  34.602   5.635  0.00  0.00     0.019 A 
ATOM      3  C   UNL d   1      -6.599  33.812   6.234  0.00  0.00    -0.003 A 
ATOM      4  C   UNL d   1      -7.470  33.858   4.434  0.00  0.00     0.058 A 
ATOM      5  C   UNL d   1      -7.165  33.045   5.932  0.00  0.00     0.009 A 
ATOM      6  C   UNL d   1      -7.601  33.068   5.033  0.00  0.00     0.038 A 
ATOM      7  C   UNL d   1      -6.777  35.441   4.100  0.00  0.00     0.012 A 
ATOM      8  C   UNL d   1      -5.876  35.394   5.963  0.00  0.00    -0.019 A 
ATOM      9  C   UNL d   1      -6.189  36.244   4.407  0.00  0.00     0.034 A 
ATOM     10  C   UNL d   1      -7.646  34.327   3.569  0.00  0.00     0.046 C 
ATOM     11  C   UNL d   1      -5.735  36.220   5.345  0.00  0.00    -0.087 A 
ATOM     12  C   UNL d   1      -5.168  36.986   5.649  0.00  0.00     0.043 C 
ENDROOT
BRANCH   3  13
ATOM     13  C   UNL d   1      -6.164  33.789   7.134  0.00  0.00    -0.018 C 
ATOM     14  C   UNL d   1      -5.271  33.353   7.246  0.00  0.00     0.010 C 
ATOM     15  C   UNL d   1      -6.621  34.202   7.921  0.00  0.00     0.010 C 
ENDBRANCH   3  13
BRANCH   4  16
ATOM     16  O   UNL d   1      -8.048  33.428   3.740  0.00  0.00    -0.390 OA
ATOM     17  H   UNL d   1      -8.665  33.430   3.807  0.00  0.00     0.210 HD
ENDBRANCH   4  16
TORSDOF 2
ENDMDL
MODEL 2
REMARK VINA RESULT:    -7.900      1.216      2.835
REMARK INTER + INTRA:          -5.057
REMARK INTER:                  -8.593
REMARK INTRA:                   3.537
REMARK UNBOUND:                 3.536
REMARK  2 active torsions:
REMARK  status: ('A' for Active; 'I' for Inactive)
REMARK    1  A    between atoms: C_5  and  O_1 
REMARK    2  A    between atoms: C_4  and  C_9 
ROOT
ATOM      1  C   UNL d   1      -6.447  34.113   5.063  0.00  0.00     0.028 A 
ATOM      2  C   UNL d   1      -5.596  34.341   5.536  0.00  0.00     0.019 A 
ATOM      3  C   UNL d   1      -5.224  35.267   5.477  0.00  0.00    -0.003 A 
ATOM      4  C   UNL d   1      -6.926  34.812   4.531  0.00  0.00     0.058 A 
ATOM      5  C   UNL d   1      -5.703  35.966   4.946  0.00  0.00     0.009 A 
ATOM      6  C   UNL d   1      -6.554  35.738   4.473  0.00  0.00     0.038 A 
ATOM      7  C   UNL d   1      -6.847  33.153   5.114  0.00  0.00     0.012 A 
ATOM      8  C   UNL d   1      -5.085  33.624   6.093  0.00  0.00    -0.019 A 
ATOM      9  C   UNL d   1      -6.354  32.420   5.666  0.00  0.00     0.034 A 
ATOM     10  C   UNL d   1      -7.633  34.146   4.292  0.00  0.00     0.046 C 
ATOM     11  C   UNL d   1      -5.467  32.657   6.158  0.00  0.00    -0.087 A 
ATOM     12  C   UNL d   1      -4.985  31.961   6.691  0.00  0.00     0.043 C 
ENDROOT
BRANCH   3  13
ATOM     13  C   UNL d   1      -4.373  35.495   5.950  0.00  0.00    -0.018 C 
ATOM     14  C   UNL d   1      -4.396  35.801   6.902  0.00  0.00     0.010 C 
ATOM     15  C   UNL d   1      -3.498  35.417   5.471  0.00  0.00     0.010 C 
ENDBRANCH   3  13
BRANCH   4  16
ATOM     16  O   UNL d   1      -7.694  35.084   3.952  0.00  0.00    -0.390 OA
ATOM     17  H   UNL d   1      -8.276  35.018   4.157  0.00  0.00     0.210 HD
ENDBRANCH   4  16
TORSDOF 2
ENDMDL
MODEL 3
REMARK VINA RESULT:    -7.442      1.639      2.882
REMARK INTER + INTRA:          -4.559
REMARK INTER:                  -8.080
REMARK INTRA:                   3.521
REMARK UNBOUND:                 3.536
REMARK  2 active torsions:
REMARK  status: ('A' for Active; 'I' for Inactive)
REMARK    1  A    between atoms: C_5  and  O_1 
REMARK    2  A    between atoms: C_4  and  C_9 
ROOT
ATOM      1  C   UNL d   1      -5.261  33.767   5.678  0.00  0.00     0.028 A 
ATOM      2  C   UNL d   1      -5.197  34.752   5.516  0.00  0.00     0.019 A 
ATOM      3  C   UNL d   1      -6.021  35.278   5.308  0.00  0.00    -0.003 A 
ATOM      4  C   UNL d   1      -6.148  33.309   5.632  0.00  0.00     0.058 A 
ATOM      5  C   UNL d   1      -6.909  34.820   5.262  0.00  0.00     0.009 A 
ATOM      6  C   UNL d   1      -6.973  33.835   5.424  0.00  0.00     0.038 A 
ATOM      7  C   UNL d   1      -4.411  33.205   5.896  0.00  0.00     0.012 A 
ATOM      8  C   UNL d   1      -4.280  35.243   5.561  0.00  0.00    -0.019 A 
ATOM      9  C   UNL d   1      -3.483  33.675   5.946  0.00  0.00     0.034 A 
ATOM     10  C   UNL d   1      -5.709  32.436   5.846  0.00  0.00     0.046 C 
ATOM     11  C   UNL d   1      -3.417  34.701   5.777  0.00  0.00    -0.087 A 
ATOM     12  C   UNL d   1      -2.531  35.162   5.823  0.00  0.00     0.043 C 
ENDROOT
BRANCH   3  13
ATOM     13  C   UNL d   1      -5.958  36.263   5.146  0.00  0.00    -0.018 C 
ATOM     14  C   UNL d   1      -6.015  36.901   5.915  0.00  0.00     0.010 C 
ATOM     15  C   UNL d   1      -5.837  36.610   4.216  0.00  0.00     0.010 C 
ENDBRANCH   3  13
BRANCH   4  16
ATOM     16  O   UNL d   1      -6.698  32.476   5.699  0.00  0.00    -0.390 OA
ATOM     17  H   UNL d   1      -6.836  32.239   6.255  0.00  0.00     0.210 HD
ENDBRANCH   4  16
TORSDOF 2
ENDMDL
MODEL 4
REMARK VINA RESULT:    -7.380      1.501      2.878
REMARK INTER + INTRA:          -4.491
REMARK INTER:                  -8.010
REMARK INTRA:                   3.519
REMARK UNBOUND:                 3.536
REMARK  2 active torsions:
REMARK  status: ('A' for Active; 'I' for Inactive)
REMARK    1  A    between atoms: C_5  and  O_1 
REMARK    2  A    between atoms: C_4  and  C_9 
ROOT
ATOM      1  C   UNL d   1      -5.879  35.534   5.232  0.00  0.00     0.028 A 
ATOM      2  C   UNL d   1      -5.658  34.926   5.995  0.00  0.00     0.019 A 
ATOM      3  C   UNL d   1      -4.931  35.172   6.636  0.00  0.00    -0.003 A 
ATOM      4  C   UNL d   1      -5.373  36.387   5.110  0.00  0.00     0.058 A 
ATOM      5  C   UNL d   1      -4.425  36.026   6.514  0.00  0.00     0.009 A 
ATOM      6  C   UNL d   1      -4.646  36.634   5.751  0.00  0.00     0.038 A 
ATOM      7  C   UNL d   1      -6.633  35.291   4.556  0.00  0.00     0.012 A 
ATOM      8  C   UNL d   1      -6.177  34.033   6.135  0.00  0.00    -0.019 A 
ATOM      9  C   UNL d   1      -7.165  34.403   4.676  0.00  0.00     0.034 A 
ATOM     10  C   UNL d   1      -5.920  36.596   4.300  0.00  0.00     0.046 C 
ATOM     11  C   UNL d   1      -6.935  33.770   5.471  0.00  0.00    -0.087 A 
ATOM     12  C   UNL d   1      -7.439  32.916   5.596  0.00  0.00     0.043 C 
ENDROOT
BRANCH   3  13
ATOM     13  C   UNL d   1      -4.711  34.565   7.399  0.00  0.00    -0.018 C 
ATOM     14  C   UNL d   1      -4.020  33.851   7.286  0.00  0.00     0.010 C 
ATOM     15  C   UNL d   1      -5.181  34.671   8.275  0.00  0.00     0.010 C 
ENDBRANCH   3  13
BRANCH   4  16
ATOM     16  O   UNL d   1      -5.208  37.231   4.599  0.00  0.00    -0.390 OA
ATOM     17  H   UNL d   1      -4.693  37.292   4.260  0.00  0.00     0.210 HD
ENDBRANCH   4  16
TORSDOF 2
ENDMDL
MODEL 5
REMARK VINA RESULT:    -7.331      1.403      2.395
REMARK INTER + INTRA:          -4.438
REMARK INTER:                  -7.969
REMARK INTRA:                   3.530
REMARK UNBOUND:                 3.536
REMARK  2 active torsions:
REMARK  status: ('A' for Active; 'I' for Inactive)
REMARK    1  A    between atoms: C_5  and  O_1 
REMARK    2  A    between atoms: C_4  and  C_9 
ROOT
ATOM      1  C   UNL d   1      -5.515  35.837   5.440  0.00  0.00     0.028 A 
ATOM      2  C   UNL d   1      -5.691  34.968   5.903  0.00  0.00     0.019 A 
ATOM      3  C   UNL d   1      -6.407  34.357   5.565  0.00  0.00    -0.003 A 
ATOM      4  C   UNL d   1      -6.056  36.096   4.640  0.00  0.00     0.058 A 
ATOM      5  C   UNL d   1      -6.948  34.616   4.764  0.00  0.00     0.009 A 
ATOM      6  C   UNL d   1      -6.772  35.485   4.302  0.00  0.00     0.038 A 
ATOM      7  C   UNL d   1      -4.773  36.484   5.780  0.00  0.00     0.012 A 
ATOM      8  C   UNL d   1      -5.136  34.685   6.738  0.00  0.00    -0.019 A 
ATOM      9  C   UNL d   1      -4.205  36.222   6.613  0.00  0.00     0.034 A 
ATOM     10  C   UNL d   1      -5.542  36.950   4.568  0.00  0.00     0.046 C 
ATOM     11  C   UNL d   1      -4.388  35.316   7.095  0.00  0.00    -0.087 A 
ATOM     12  C   UNL d   1      -3.849  35.055   7.896  0.00  0.00     0.043 C 
ENDROOT
BRANCH   3  13
ATOM     13  C   UNL d   1      -6.582  33.488   6.027  0.00  0.00    -0.018 C 
ATOM     14  C   UNL d   1      -6.087  32.665   5.750  0.00  0.00     0.010 C 
ATOM     15  C   UNL d   1      -7.253  33.442   6.768  0.00  0.00     0.010 C 
ENDBRANCH   3  13
BRANCH   4  16
ATOM     16  O   UNL d   1      -6.267  36.746   3.910  0.00  0.00    -0.390 OA
ATOM     17  H   UNL d   1      -6.211  36.576   3.317  0.00  0.00     0.210 HD
ENDBRANCH   4  16
TORSDOF 2
ENDMDL
