MODEL 1
REMARK VINA RESULT:    -5.966      0.000      0.000
REMARK INTER + INTRA:          -6.315
REMARK INTER:                  -6.315
REMARK INTRA:                   0.000
REMARK UNBOUND:                 0.000
REMARK  1 active torsions:
REMARK  status: ('A' for Active; 'I' for Inactive)
REMARK    1  A    between atoms: O_1  and  C_5 
ROOT
ATOM      1  C   UNL d   1      -7.216  34.362   4.481  0.00  0.00    -0.013 A 
ATOM      2  C   UNL d   1      -6.834  33.633   6.377  0.00  0.00    -0.003 A 
ATOM      3  C   UNL d   1      -6.554  34.549   6.089  0.00  0.00     0.021 A 
ATOM      4  C   UNL d   1      -6.759  35.206   4.763  0.00  0.00     0.065 A 
ATOM      5  C   UNL d   1      -7.429  32.780   5.724  0.00  0.00     0.013 A 
ATOM      6  C   UNL d   1      -6.209  33.993   7.680  0.00  0.00     0.006 A 
ATOM      7  C   UNL d   1      -5.929  34.909   7.391  0.00  0.00     0.008 A 
ATOM      8  C   UNL d   1      -7.693  33.591   4.060  0.00  0.00     0.018 C 
ATOM      9  C   UNL d   1      -7.450  34.617   3.542  0.00  0.00     0.018 C 
ATOM     10  C   UNL d   1      -6.333  36.101   4.899  0.00  0.00     0.047 C 
ENDROOT
BRANCH   4  11
ATOM     11  O   UNL d   1      -6.850  35.725   3.912  0.00  0.00    -0.389 OA
ATOM     12  H   UNL d   1      -6.440  35.644   3.454  0.00  0.00     0.210 HD
ENDBRANCH   4  11
TORSDOF 1
ENDMDL
MODEL 2
REMARK VINA RESULT:    -5.916      1.046      2.473
REMARK INTER + INTRA:          -6.262
REMARK INTER:                  -6.262
REMARK INTRA:                   0.000
REMARK UNBOUND:                 0.000
REMARK  1 active torsions:
REMARK  status: ('A' for Active; 'I' for Inactive)
REMARK    1  A    between atoms: O_1  and  C_5 
ROOT
ATOM      1  C   UNL d   1      -7.162  33.651   5.374  0.00  0.00    -0.013 A 
ATOM      2  C   UNL d   1      -6.035  35.346   5.739  0.00  0.00    -0.003 A 
ATOM      3  C   UNL d   1      -6.511  35.195   4.873  0.00  0.00     0.021 A 
ATOM      4  C   UNL d   1      -7.355  34.030   4.469  0.00  0.00     0.065 A 
ATOM      5  C   UNL d   1      -6.006  34.615   6.726  0.00  0.00     0.013 A 
ATOM      6  C   UNL d   1      -5.587  36.624   5.122  0.00  0.00     0.006 A 
ATOM      7  C   UNL d   1      -6.063  36.473   4.255  0.00  0.00     0.008 A 
ATOM      8  C   UNL d   1      -7.059  33.152   6.234  0.00  0.00     0.018 C 
ATOM      9  C   UNL d   1      -7.679  32.798   5.300  0.00  0.00     0.018 C 
ATOM     10  C   UNL d   1      -7.632  34.277   3.540  0.00  0.00     0.047 C 
ENDROOT
BRANCH   4  11
ATOM     11  O   UNL d   1      -7.932  33.295   4.112  0.00  0.00    -0.389 OA
ATOM     12  H   UNL d   1      -8.176  33.341   3.543  0.00  0.00     0.210 HD
ENDBRANCH   4  11
TORSDOF 1
ENDMDL
MODEL 3
REMARK VINA RESULT:    -5.679      1.144      2.738
REMARK INTER + INTRA:          -6.011
REMARK INTER:                  -6.011
REMARK INTRA:                   0.000
REMARK UNBOUND:                 0.000
REMARK  1 active torsions:
REMARK  status: ('A' for Active; 'I' for Inactive)
REMARK    1  A    between atoms: O_1  and  C_5 
ROOT
ATOM      1  C   UNL d   1      -5.528  34.869   5.999  0.00  0.00    -0.013 A 
ATOM      2  C   UNL d   1      -6.778  33.530   5.040  0.00  0.00    -0.003 A 
ATOM      3  C   UNL d   1      -6.697  34.485   4.756  0.00  0.00     0.021 A 
ATOM      4  C   UNL d   1      -5.843  35.559   5.347  0.00  0.00     0.065 A 
ATOM      5  C   UNL d   1      -6.198  32.960   5.961  0.00  0.00     0.013 A 
ATOM      6  C   UNL d   1      -7.753  33.414   3.921  0.00  0.00     0.006 A 
ATOM      7  C   UNL d   1      -7.672  34.370   3.637  0.00  0.00     0.008 A 
ATOM      8  C   UNL d   1      -5.125  34.294   6.711  0.00  0.00     0.018 C 
ATOM      9  C   UNL d   1      -4.895  35.433   6.530  0.00  0.00     0.018 C 
ATOM     10  C   UNL d   1      -6.061  36.348   4.772  0.00  0.00     0.047 C 
ENDROOT
BRANCH   4  11
ATOM     11  O   UNL d   1      -5.308  36.339   5.674  0.00  0.00    -0.389 OA
ATOM     12  H   UNL d   1      -4.804  36.245   6.023  0.00  0.00     0.210 HD
ENDBRANCH   4  11
TORSDOF 1
ENDMDL
MODEL 4
REMARK VINA RESULT:    -5.607      1.289      3.391
REMARK INTER + INTRA:          -5.934
REMARK INTER:                  -5.934
REMARK INTRA:                   0.000
REMARK UNBOUND:                 0.000
REMARK  1 active torsions:
REMARK  status: ('A' for Active; 'I' for Inactive)
REMARK    1  A    between atoms: O_1  and  C_5 
ROOT
ATOM      1  C   UNL d   1      -6.301  35.059   6.245  0.00  0.00    -0.013 A 
ATOM      2  C   UNL d   1      -6.855  35.135   4.255  0.00  0.00    -0.003 A 
ATOM      3  C   UNL d   1      -7.104  34.372   4.851  0.00  0.00     0.021 A 
ATOM      4  C   UNL d   1      -6.778  34.181   6.297  0.00  0.00     0.065 A 
ATOM      5  C   UNL d   1      -6.206  36.139   4.537  0.00  0.00     0.013 A 
ATOM      6  C   UNL d   1      -7.592  34.383   3.202  0.00  0.00     0.006 A 
ATOM      7  C   UNL d   1      -7.841  33.620   3.799  0.00  0.00     0.008 A 
ATOM      8  C   UNL d   1      -5.792  35.913   6.346  0.00  0.00     0.018 C 
ATOM      9  C   UNL d   1      -5.983  35.120   7.192  0.00  0.00     0.018 C 
ATOM     10  C   UNL d   1      -7.210  33.302   6.500  0.00  0.00     0.047 C 
ENDROOT
BRANCH   4  11
ATOM     11  O   UNL d   1      -6.609  33.968   7.260  0.00  0.00    -0.389 OA
ATOM     12  H   UNL d   1      -6.055  34.085   7.511  0.00  0.00     0.210 HD
ENDBRANCH   4  11
TORSDOF 1
ENDMDL
MODEL 5
REMARK VINA RESULT:    -5.347      2.172      3.032
REMARK INTER + INTRA:          -5.660
REMARK INTER:                  -5.660
REMARK INTRA:                   0.000
REMARK UNBOUND:                 0.000
REMARK  1 active torsions:
REMARK  status: ('A' for Active; 'I' for Inactive)
REMARK    1  A    between atoms: O_1  and  C_5 
ROOT
ATOM      1  C   UNL d   1      -5.421  33.003   5.783  0.00  0.00    -0.013 A 
ATOM      2  C   UNL d   1      -6.310  34.813   5.329  0.00  0.00    -0.003 A 
ATOM      3  C   UNL d   1      -5.321  34.716   5.444  0.00  0.00     0.021 A 
ATOM      4  C   UNL d   1      -4.543  33.482   5.770  0.00  0.00     0.065 A 
ATOM      5  C   UNL d   1      -7.174  33.946   5.423  0.00  0.00     0.013 A 
ATOM      6  C   UNL d   1      -6.007  36.247   5.067  0.00  0.00     0.006 A 
ATOM      7  C   UNL d   1      -5.018  36.150   5.182  0.00  0.00     0.008 A 
ATOM      8  C   UNL d   1      -6.213  32.395   5.830  0.00  0.00     0.018 C 
ATOM      9  C   UNL d   1      -5.093  32.083   6.001  0.00  0.00     0.018 C 
ATOM     10  C   UNL d   1      -3.602  33.822   5.791  0.00  0.00     0.047 C 
ENDROOT
BRANCH   4  11
ATOM     11  O   UNL d   1      -3.941  32.713   5.984  0.00  0.00    -0.389 OA
ATOM     12  H   UNL d   1      -3.857  32.260   5.569  0.00  0.00     0.210 HD
ENDBRANCH   4  11
TORSDOF 1
ENDMDL
