MODEL 1
REMARK VINA RESULT:    -8.167      0.000      0.000
REMARK INTER + INTRA:          -4.970
REMARK INTER:                  -8.599
REMARK INTRA:                   3.629
REMARK UNBOUND:                 3.913
REMARK  2 active torsions:
REMARK  status: ('A' for Active; 'I' for Inactive)
REMARK    1  A    between atoms: C_5  and  O_1 
REMARK    2  A    between atoms: C_4  and  C_9 
ROOT
ATOM      1  C   UNL d   1      -5.234  21.233 -10.065  0.00  0.00     0.028 A 
ATOM      2  C   UNL d   1      -5.896  20.678 -10.569  0.00  0.00     0.019 A 
ATOM      3  C   UNL d   1      -6.744  21.089 -10.902  0.00  0.00    -0.003 A 
ATOM      4  C   UNL d   1      -5.421  22.201  -9.894  0.00  0.00     0.058 A 
ATOM      5  C   UNL d   1      -6.931  22.057 -10.731  0.00  0.00     0.009 A 
ATOM      6  C   UNL d   1      -6.269  22.612 -10.227  0.00  0.00     0.038 A 
ATOM      7  C   UNL d   1      -4.346  20.819  -9.712  0.00  0.00     0.012 A 
ATOM      8  C   UNL d   1      -5.715  19.668 -10.755  0.00  0.00    -0.019 A 
ATOM      9  C   UNL d   1      -4.145  19.812  -9.886  0.00  0.00     0.034 A 
ATOM     10  C   UNL d   1      -4.550  22.284  -9.411  0.00  0.00     0.046 C 
ATOM     11  C   UNL d   1      -4.834  19.233 -10.411  0.00  0.00    -0.087 A 
ATOM     12  C   UNL d   1      -4.650  18.265 -10.583  0.00  0.00     0.043 C 
ENDROOT
BRANCH   3  13
ATOM     13  C   UNL d   1      -7.405  20.534 -11.406  0.00  0.00    -0.018 C 
ATOM     14  C   UNL d   1      -8.234  20.207 -10.951  0.00  0.00     0.010 C 
ATOM     15  C   UNL d   1      -7.238  20.305 -12.365  0.00  0.00     0.010 C 
ENDBRANCH   3  13
BRANCH   4  16
ATOM     16  O   UNL d   1      -5.147  23.080  -9.505  0.00  0.00    -0.390 OA
ATOM     17  H   UNL d   1      -5.502  23.353  -9.076  0.00  0.00     0.210 HD
ENDBRANCH   4  16
TORSDOF 2
ENDMDL
MODEL 2
REMARK VINA RESULT:    -8.138      1.852      2.696
REMARK INTER + INTRA:          -4.939
REMARK INTER:                  -8.470
REMARK INTRA:                   3.531
REMARK UNBOUND:                 3.913
REMARK  2 active torsions:
REMARK  status: ('A' for Active; 'I' for Inactive)
REMARK    1  A    between atoms: C_5  and  O_1 
REMARK    2  A    between atoms: C_4  and  C_9 
ROOT
ATOM      1  C   UNL d   1      -6.709  19.906 -11.302  0.00  0.00     0.028 A 
ATOM      2  C   UNL d   1      -6.750  19.054 -11.824  0.00  0.00     0.019 A 
ATOM      3  C   UNL d   1      -7.631  18.705 -12.143  0.00  0.00    -0.003 A 
ATOM      4  C   UNL d   1      -7.550  20.408 -11.098  0.00  0.00     0.058 A 
ATOM      5  C   UNL d   1      -8.471  19.207 -11.939  0.00  0.00     0.009 A 
ATOM      6  C   UNL d   1      -8.431  20.059 -11.417  0.00  0.00     0.038 A 
ATOM      7  C   UNL d   1      -5.799  20.283 -10.963  0.00  0.00     0.012 A 
ATOM      8  C   UNL d   1      -5.883  18.520 -12.044  0.00  0.00    -0.019 A 
ATOM      9  C   UNL d   1      -4.919  19.766 -11.172  0.00  0.00     0.034 A 
ATOM     10  C   UNL d   1      -7.017  21.102 -10.613  0.00  0.00     0.046 C 
ATOM     11  C   UNL d   1      -4.962  18.878 -11.716  0.00  0.00    -0.087 A 
ATOM     12  C   UNL d   1      -4.123  18.373 -11.921  0.00  0.00     0.043 C 
ENDROOT
BRANCH   3  13
ATOM     13  C   UNL d   1      -7.672  17.853 -12.665  0.00  0.00    -0.018 C 
ATOM     14  C   UNL d   1      -7.716  16.975 -12.187  0.00  0.00     0.010 C 
ATOM     15  C   UNL d   1      -7.668  17.878 -13.665  0.00  0.00     0.010 C 
ENDBRANCH   3  13
BRANCH   4  16
ATOM     16  O   UNL d   1      -8.011  21.190 -10.679  0.00  0.00    -0.390 OA
ATOM     17  H   UNL d   1      -8.549  21.393 -10.911  0.00  0.00     0.210 HD
ENDBRANCH   4  16
TORSDOF 2
ENDMDL
MODEL 3
REMARK VINA RESULT:    -8.128     22.265     22.961
REMARK INTER + INTRA:          -4.927
REMARK INTER:                  -8.473
REMARK INTRA:                   3.546
REMARK UNBOUND:                 3.913
REMARK  2 active torsions:
REMARK  status: ('A' for Active; 'I' for Inactive)
REMARK    1  A    between atoms: C_5  and  O_1 
REMARK    2  A    between atoms: C_4  and  C_9 
ROOT
ATOM      1  C   UNL d   1     -10.304  19.220  12.322  0.00  0.00     0.028 A 
ATOM      2  C   UNL d   1      -9.706  19.885  11.874  0.00  0.00     0.019 A 
ATOM      3  C   UNL d   1     -10.077  20.757  11.555  0.00  0.00    -0.003 A 
ATOM      4  C   UNL d   1     -11.274  19.428  12.450  0.00  0.00     0.058 A 
ATOM      5  C   UNL d   1     -11.047  20.964  11.683  0.00  0.00     0.009 A 
ATOM      6  C   UNL d   1     -11.645  20.300  12.131  0.00  0.00     0.038 A 
ATOM      7  C   UNL d   1      -9.932  18.308  12.660  0.00  0.00     0.012 A 
ATOM      8  C   UNL d   1      -8.693  19.683  11.733  0.00  0.00    -0.019 A 
ATOM      9  C   UNL d   1      -8.923  18.085  12.529  0.00  0.00     0.034 A 
ATOM     10  C   UNL d   1     -11.405  18.541  12.892  0.00  0.00     0.046 C 
ATOM     11  C   UNL d   1      -8.300  18.777  12.063  0.00  0.00    -0.087 A 
ATOM     12  C   UNL d   1      -7.329  18.573  11.933  0.00  0.00     0.043 C 
ENDROOT
BRANCH   3  13
ATOM     13  C   UNL d   1      -9.479  21.421  11.108  0.00  0.00    -0.018 C 
ATOM     14  C   UNL d   1      -9.435  21.462  10.109  0.00  0.00     0.010 C 
ATOM     15  C   UNL d   1      -8.924  22.045  11.658  0.00  0.00     0.010 C 
ENDBRANCH   3  13
BRANCH   4  16
ATOM     16  O   UNL d   1     -12.180  19.164  12.782  0.00  0.00    -0.390 OA
ATOM     17  H   UNL d   1     -12.646  19.086  12.382  0.00  0.00     0.210 HD
ENDBRANCH   4  16
TORSDOF 2
ENDMDL
MODEL 4
REMARK VINA RESULT:    -8.125      2.021      3.599
REMARK INTER + INTRA:          -4.924
REMARK INTER:                  -8.455
REMARK INTRA:                   3.531
REMARK UNBOUND:                 3.913
REMARK  2 active torsions:
REMARK  status: ('A' for Active; 'I' for Inactive)
REMARK    1  A    between atoms: C_5  and  O_1 
REMARK    2  A    between atoms: C_4  and  C_9 
ROOT
ATOM      1  C   UNL d   1      -7.575  19.279 -11.730  0.00  0.00     0.028 A 
ATOM      2  C   UNL d   1      -6.614  19.004 -11.712  0.00  0.00     0.019 A 
ATOM      3  C   UNL d   1      -5.935  19.586 -11.265  0.00  0.00    -0.003 A 
ATOM      4  C   UNL d   1      -7.857  20.137 -11.302  0.00  0.00     0.058 A 
ATOM      5  C   UNL d   1      -6.217  20.444 -10.836  0.00  0.00     0.009 A 
ATOM      6  C   UNL d   1      -7.178  20.720 -10.854  0.00  0.00     0.038 A 
ATOM      7  C   UNL d   1      -8.293  18.683 -12.193  0.00  0.00     0.012 A 
ATOM      8  C   UNL d   1      -6.304  18.113 -12.154  0.00  0.00    -0.019 A 
ATOM      9  C   UNL d   1      -8.007  17.788 -12.641  0.00  0.00     0.034 A 
ATOM     10  C   UNL d   1      -8.804  19.960 -11.570  0.00  0.00     0.046 C 
ATOM     11  C   UNL d   1      -7.005  17.501 -12.622  0.00  0.00    -0.087 A 
ATOM     12  C   UNL d   1      -6.719  16.644 -13.050  0.00  0.00     0.043 C 
ENDROOT
BRANCH   3  13
ATOM     13  C   UNL d   1      -4.974  19.311 -11.246  0.00  0.00    -0.018 C 
ATOM     14  C   UNL d   1      -4.364  19.574 -11.994  0.00  0.00     0.010 C 
ATOM     15  C   UNL d   1      -4.623  18.772 -10.481  0.00  0.00     0.010 C 
ENDBRANCH   3  13
BRANCH   4  16
ATOM     16  O   UNL d   1      -8.575  20.792 -11.065  0.00  0.00    -0.390 OA
ATOM     17  H   UNL d   1      -8.701  20.912 -10.470  0.00  0.00     0.210 HD
ENDBRANCH   4  16
TORSDOF 2
ENDMDL
MODEL 5
REMARK VINA RESULT:    -8.041      2.646      4.681
REMARK INTER + INTRA:          -4.833
REMARK INTER:                  -8.368
REMARK INTRA:                   3.534
REMARK UNBOUND:                 3.913
REMARK  2 active torsions:
REMARK  status: ('A' for Active; 'I' for Inactive)
REMARK    1  A    between atoms: C_5  and  O_1 
REMARK    2  A    between atoms: C_4  and  C_9 
ROOT
ATOM      1  C   UNL d   1      -7.030  17.998 -12.086  0.00  0.00     0.028 A 
ATOM      2  C   UNL d   1      -6.402  18.686 -11.721  0.00  0.00     0.019 A 
ATOM      3  C   UNL d   1      -5.436  18.463 -11.591  0.00  0.00    -0.003 A 
ATOM      4  C   UNL d   1      -6.691  17.087 -12.320  0.00  0.00     0.058 A 
ATOM      5  C   UNL d   1      -5.098  17.551 -11.824  0.00  0.00     0.009 A 
ATOM      6  C   UNL d   1      -5.725  16.863 -12.189  0.00  0.00     0.038 A 
ATOM      7  C   UNL d   1      -8.038  18.216 -12.227  0.00  0.00     0.012 A 
ATOM      8  C   UNL d   1      -6.740  19.640 -11.473  0.00  0.00    -0.019 A 
ATOM      9  C   UNL d   1      -8.398  19.163 -11.986  0.00  0.00     0.034 A 
ATOM     10  C   UNL d   1      -7.611  16.818 -12.605  0.00  0.00     0.046 C 
ATOM     11  C   UNL d   1      -7.744  19.880 -11.606  0.00  0.00    -0.087 A 
ATOM     12  C   UNL d   1      -8.080  20.792 -11.372  0.00  0.00     0.043 C 
ENDROOT
BRANCH   3  13
ATOM     13  C   UNL d   1      -4.809  19.151 -11.226  0.00  0.00    -0.018 C 
ATOM     14  C   UNL d   1      -4.652  19.213 -10.241  0.00  0.00     0.010 C 
ATOM     15  C   UNL d   1      -4.338  19.777 -11.848  0.00  0.00     0.010 C 
ENDBRANCH   3  13
BRANCH   4  16
ATOM     16  O   UNL d   1      -6.858  16.163 -12.665  0.00  0.00    -0.390 OA
ATOM     17  H   UNL d   1      -7.148  15.747 -12.309  0.00  0.00     0.210 HD
ENDBRANCH   4  16
TORSDOF 2
ENDMDL
