MODEL 1
REMARK VINA RESULT:    -8.428      0.000      0.000
REMARK INTER + INTRA:          -5.837
REMARK INTER:                 -10.945
REMARK INTRA:                   5.107
REMARK UNBOUND:                 5.055
REMARK  6 active torsions:
REMARK  status: ('A' for Active; 'I' for Inactive)
REMARK    1  A    between atoms: O_2  and  C_15 
REMARK    2  A    between atoms: O_3  and  C_17 
REMARK    3  A    between atoms: O_4  and  C_11 
REMARK    4  A    between atoms: O_6  and  C_22 
REMARK    5  A    between atoms: O_7  and  C_20 
REMARK    6  A    between atoms: C_10  and  C_13 
ROOT
ATOM      1  O   UNL d   1     -14.903  16.220 -33.420  0.00  0.00    -0.309 OA
ATOM      2  O   UNL d   1     -14.322  17.686 -30.788  0.00  0.00    -0.287 OA
ATOM      3  C   UNL d   1     -13.882  16.461 -31.986  0.00  0.00     0.084 A 
ATOM      4  C   UNL d   1     -14.068  15.981 -32.844  0.00  0.00     0.096 A 
ATOM      5  C   UNL d   1     -15.552  16.968 -33.099  0.00  0.00     0.090 A 
ATOM      6  C   UNL d   1     -13.078  16.221 -31.443  0.00  0.00     0.119 A 
ATOM      7  C   UNL d   1     -14.518  17.212 -31.646  0.00  0.00     0.190 A 
ATOM      8  C   UNL d   1     -13.450  15.261 -33.158  0.00  0.00     0.078 A 
ATOM      9  C   UNL d   1     -12.459  15.501 -31.758  0.00  0.00     0.136 A 
ATOM     10  C   UNL d   1     -15.358  17.468 -32.206  0.00  0.00     0.094 A 
ATOM     11  C   UNL d   1     -12.645  15.021 -32.615  0.00  0.00     0.107 A 
ENDROOT
BRANCH   5  12
ATOM     12  C   UNL d   1     -16.355  17.206 -33.644  0.00  0.00     0.001 A 
ATOM     13  C   UNL d   1     -17.272  17.072 -33.268  0.00  0.00     0.053 A 
ATOM     14  C   UNL d   1     -18.076  17.309 -33.813  0.00  0.00     0.099 A 
ATOM     15  C   UNL d   1     -17.963  17.681 -34.735  0.00  0.00     0.101 A 
ATOM     16  C   UNL d   1     -17.047  17.815 -35.111  0.00  0.00     0.040 A 
ATOM     17  C   UNL d   1     -16.243  17.577 -34.566  0.00  0.00     0.017 A 
BRANCH  14  18
ATOM     18  O   UNL d   1     -18.993  17.175 -33.437  0.00  0.00    -0.358 OA
ATOM     19  H   UNL d   1     -19.087  17.210 -32.826  0.00  0.00     0.217 HD
ENDBRANCH  14  18
BRANCH  15  20
ATOM     20  O   UNL d   1     -18.767  17.918 -35.280  0.00  0.00    -0.353 OA
ATOM     21  C   UNL d   1     -18.664  18.456 -36.116  0.00  0.00     0.210 C 
ENDBRANCH  15  20
ENDBRANCH   5  12
BRANCH   6  22
ATOM     22  O   UNL d   1     -12.892  16.701 -30.586  0.00  0.00    -0.357 OA
ATOM     23  H   UNL d   1     -12.680  16.387 -30.095  0.00  0.00     0.218 HD
ENDBRANCH   6  22
BRANCH  11  24
ATOM     24  O   UNL d   1     -12.026  14.301 -32.930  0.00  0.00    -0.353 OA
ATOM     25  C   UNL d   1     -12.122  13.927 -33.852  0.00  0.00     0.210 C 
ENDBRANCH  11  24
BRANCH   9  26
ATOM     26  O   UNL d   1     -11.654  15.261 -31.215  0.00  0.00    -0.351 OA
ATOM     27  C   UNL d   1     -11.725  14.573 -30.493  0.00  0.00     0.210 C 
ENDBRANCH   9  26
TORSDOF 6
ENDMDL
MODEL 2
REMARK VINA RESULT:    -8.353     22.514     25.728
REMARK INTER + INTRA:          -5.740
REMARK INTER:                 -10.937
REMARK INTRA:                   5.197
REMARK UNBOUND:                 5.055
REMARK  6 active torsions:
REMARK  status: ('A' for Active; 'I' for Inactive)
REMARK    1  A    between atoms: O_2  and  C_15 
REMARK    2  A    between atoms: O_3  and  C_17 
REMARK    3  A    between atoms: O_4  and  C_11 
REMARK    4  A    between atoms: O_6  and  C_22 
REMARK    5  A    between atoms: O_7  and  C_20 
REMARK    6  A    between atoms: C_10  and  C_13 
ROOT
ATOM      1  O   UNL d   1     -13.894   6.122  -9.698  0.00  0.00    -0.309 OA
ATOM      2  O   UNL d   1     -13.066   7.400 -12.363  0.00  0.00    -0.287 OA
ATOM      3  C   UNL d   1     -14.312   6.685 -11.330  0.00  0.00     0.084 A 
ATOM      4  C   UNL d   1     -14.585   6.268 -10.463  0.00  0.00     0.096 A 
ATOM      5  C   UNL d   1     -12.904   6.414  -9.838  0.00  0.00     0.090 A 
ATOM      6  C   UNL d   1     -14.987   6.819 -12.055  0.00  0.00     0.119 A 
ATOM      7  C   UNL d   1     -13.328   6.985 -11.492  0.00  0.00     0.190 A 
ATOM      8  C   UNL d   1     -15.534   5.986 -10.321  0.00  0.00     0.078 A 
ATOM      9  C   UNL d   1     -15.936   6.537 -11.914  0.00  0.00     0.136 A 
ATOM     10  C   UNL d   1     -12.619   6.848 -10.742  0.00  0.00     0.094 A 
ATOM     11  C   UNL d   1     -16.209   6.120 -11.047  0.00  0.00     0.107 A 
ENDROOT
BRANCH   5  12
ATOM     12  C   UNL d   1     -12.231   6.278  -9.111  0.00  0.00     0.001 A 
ATOM     13  C   UNL d   1     -11.620   7.026  -8.850  0.00  0.00     0.053 A 
ATOM     14  C   UNL d   1     -10.947   6.891  -8.123  0.00  0.00     0.099 A 
ATOM     15  C   UNL d   1     -10.885   6.008  -7.657  0.00  0.00     0.101 A 
ATOM     16  C   UNL d   1     -11.496   5.261  -7.918  0.00  0.00     0.040 A 
ATOM     17  C   UNL d   1     -12.169   5.396  -8.645  0.00  0.00     0.017 A 
BRANCH  14  18
ATOM     18  O   UNL d   1     -10.335   7.637  -7.861  0.00  0.00    -0.358 OA
ATOM     19  H   UNL d   1     -10.270   8.130  -8.231  0.00  0.00     0.217 HD
ENDBRANCH  14  18
BRANCH  15  20
ATOM     20  O   UNL d   1     -10.213   5.872  -6.930  0.00  0.00    -0.353 OA
ATOM     21  C   UNL d   1     -10.322   5.120  -6.280  0.00  0.00     0.210 C 
ENDBRANCH  15  20
ENDBRANCH   5  12
BRANCH   6  22
ATOM     22  O   UNL d   1     -14.714   7.236 -12.922  0.00  0.00    -0.357 OA
ATOM     23  H   UNL d   1     -14.291   6.958 -13.280  0.00  0.00     0.218 HD
ENDBRANCH   6  22
BRANCH  11  24
ATOM     24  O   UNL d   1     -17.158   5.837 -10.905  0.00  0.00    -0.353 OA
ATOM     25  C   UNL d   1     -17.460   5.534 -10.001  0.00  0.00     0.210 C 
ENDBRANCH  11  24
BRANCH   9  26
ATOM     26  O   UNL d   1     -16.611   6.671 -12.639  0.00  0.00    -0.351 OA
ATOM     27  C   UNL d   1     -16.717   5.983 -13.357  0.00  0.00     0.210 C 
ENDBRANCH   9  26
TORSDOF 6
ENDMDL
MODEL 3
REMARK VINA RESULT:    -8.344     26.238     27.808
REMARK INTER + INTRA:          -5.729
REMARK INTER:                 -10.988
REMARK INTRA:                   5.260
REMARK UNBOUND:                 5.055
REMARK  6 active torsions:
REMARK  status: ('A' for Active; 'I' for Inactive)
REMARK    1  A    between atoms: O_2  and  C_15 
REMARK    2  A    between atoms: O_3  and  C_17 
REMARK    3  A    between atoms: O_4  and  C_11 
REMARK    4  A    between atoms: O_6  and  C_22 
REMARK    5  A    between atoms: O_7  and  C_20 
REMARK    6  A    between atoms: C_10  and  C_13 
ROOT
ATOM      1  O   UNL d   1     -21.609  31.995 -11.428  0.00  0.00    -0.309 OA
ATOM      2  O   UNL d   1     -22.882  34.783 -11.260  0.00  0.00    -0.287 OA
ATOM      3  C   UNL d   1     -21.453  33.744 -11.160  0.00  0.00     0.084 A 
ATOM      4  C   UNL d   1     -21.035  32.838 -11.214  0.00  0.00     0.096 A 
ATOM      5  C   UNL d   1     -22.634  32.099 -11.587  0.00  0.00     0.090 A 
ATOM      6  C   UNL d   1     -20.889  34.544 -10.954  0.00  0.00     0.119 A 
ATOM      7  C   UNL d   1     -22.475  33.871 -11.316  0.00  0.00     0.190 A 
ATOM      8  C   UNL d   1     -20.052  32.731 -11.062  0.00  0.00     0.078 A 
ATOM      9  C   UNL d   1     -19.906  34.437 -10.802  0.00  0.00     0.136 A 
ATOM     10  C   UNL d   1     -23.069  33.044 -11.531  0.00  0.00     0.094 A 
ATOM     11  C   UNL d   1     -19.488  33.530 -10.856  0.00  0.00     0.107 A 
ENDROOT
BRANCH   5  12
ATOM     12  C   UNL d   1     -23.195  31.298 -11.793  0.00  0.00     0.001 A 
ATOM     13  C   UNL d   1     -23.033  30.776 -12.631  0.00  0.00     0.053 A 
ATOM     14  C   UNL d   1     -23.594  29.974 -12.837  0.00  0.00     0.099 A 
ATOM     15  C   UNL d   1     -24.317  29.694 -12.205  0.00  0.00     0.101 A 
ATOM     16  C   UNL d   1     -24.479  30.216 -11.368  0.00  0.00     0.040 A 
ATOM     17  C   UNL d   1     -23.918  31.018 -11.162  0.00  0.00     0.017 A 
BRANCH  14  18
ATOM     18  O   UNL d   1     -23.432  29.452 -13.674  0.00  0.00    -0.358 OA
ATOM     19  H   UNL d   1     -22.873  29.455 -13.939  0.00  0.00     0.217 HD
ENDBRANCH  14  18
BRANCH  15  20
ATOM     20  O   UNL d   1     -24.878  28.893 -12.411  0.00  0.00    -0.353 OA
ATOM     21  C   UNL d   1     -25.842  28.876 -12.148  0.00  0.00     0.210 C 
ENDBRANCH  15  20
ENDBRANCH   5  12
BRANCH   6  22
ATOM     22  O   UNL d   1     -21.307  35.451 -10.901  0.00  0.00    -0.357 OA
ATOM     23  H   UNL d   1     -21.919  35.505 -10.813  0.00  0.00     0.218 HD
ENDBRANCH   6  22
BRANCH  11  24
ATOM     24  O   UNL d   1     -18.506  33.423 -10.704  0.00  0.00    -0.353 OA
ATOM     25  C   UNL d   1     -18.091  32.514 -10.739  0.00  0.00     0.210 C 
ENDBRANCH  11  24
BRANCH   9  26
ATOM     26  O   UNL d   1     -19.342  35.236 -10.596  0.00  0.00    -0.351 OA
ATOM     27  C   UNL d   1     -19.241  35.965 -11.274  0.00  0.00     0.210 C 
ENDBRANCH   9  26
TORSDOF 6
ENDMDL
MODEL 4
REMARK VINA RESULT:    -8.060     22.165     24.731
REMARK INTER + INTRA:          -5.361
REMARK INTER:                 -10.677
REMARK INTRA:                   5.316
REMARK UNBOUND:                 5.055
REMARK  6 active torsions:
REMARK  status: ('A' for Active; 'I' for Inactive)
REMARK    1  A    between atoms: O_2  and  C_15 
REMARK    2  A    between atoms: O_3  and  C_17 
REMARK    3  A    between atoms: O_4  and  C_11 
REMARK    4  A    between atoms: O_6  and  C_22 
REMARK    5  A    between atoms: O_7  and  C_20 
REMARK    6  A    between atoms: C_10  and  C_13 
ROOT
ATOM      1  O   UNL d   1     -13.833   6.267 -10.286  0.00  0.00    -0.309 OA
ATOM      2  O   UNL d   1     -13.005   9.205  -9.961  0.00  0.00    -0.287 OA
ATOM      3  C   UNL d   1     -12.782   7.497  -9.553  0.00  0.00     0.084 A 
ATOM      4  C   UNL d   1     -13.050   6.539  -9.656  0.00  0.00     0.096 A 
ATOM      5  C   UNL d   1     -14.346   7.004 -10.816  0.00  0.00     0.090 A 
ATOM      6  C   UNL d   1     -12.028   7.743  -8.944  0.00  0.00     0.119 A 
ATOM      7  C   UNL d   1     -13.281   8.250 -10.072  0.00  0.00     0.190 A 
ATOM      8  C   UNL d   1     -12.562   5.827  -9.151  0.00  0.00     0.078 A 
ATOM      9  C   UNL d   1     -11.541   7.031  -8.439  0.00  0.00     0.136 A 
ATOM     10  C   UNL d   1     -14.067   8.002 -10.708  0.00  0.00     0.094 A 
ATOM     11  C   UNL d   1     -11.808   6.073  -8.542  0.00  0.00     0.107 A 
ENDROOT
BRANCH   5  12
ATOM     12  C   UNL d   1     -15.100   6.755 -11.423  0.00  0.00     0.001 A 
ATOM     13  C   UNL d   1     -15.149   7.143 -12.343  0.00  0.00     0.053 A 
ATOM     14  C   UNL d   1     -15.903   6.894 -12.952  0.00  0.00     0.099 A 
ATOM     15  C   UNL d   1     -16.607   6.256 -12.639  0.00  0.00     0.101 A 
ATOM     16  C   UNL d   1     -16.558   5.868 -11.719  0.00  0.00     0.040 A 
ATOM     17  C   UNL d   1     -15.804   6.117 -11.111  0.00  0.00     0.017 A 
BRANCH  14  18
ATOM     18  O   UNL d   1     -15.953   7.281 -13.872  0.00  0.00    -0.358 OA
ATOM     19  H   UNL d   1     -15.812   7.877 -13.966  0.00  0.00     0.217 HD
ENDBRANCH  14  18
BRANCH  15  20
ATOM     20  O   UNL d   1     -17.361   6.007 -13.247  0.00  0.00    -0.353 OA
ATOM     21  C   UNL d   1     -17.672   5.058 -13.295  0.00  0.00     0.210 C 
ENDBRANCH  15  20
ENDBRANCH   5  12
BRANCH   6  22
ATOM     22  O   UNL d   1     -11.761   8.701  -8.841  0.00  0.00    -0.357 OA
ATOM     23  H   UNL d   1     -11.369   8.960  -9.247  0.00  0.00     0.218 HD
ENDBRANCH   6  22
BRANCH  11  24
ATOM     24  O   UNL d   1     -11.320   5.361  -8.037  0.00  0.00    -0.353 OA
ATOM     25  C   UNL d   1     -11.655   4.419  -8.053  0.00  0.00     0.210 C 
ENDBRANCH  11  24
BRANCH   9  26
ATOM     26  O   UNL d   1     -10.786   7.277  -7.831  0.00  0.00    -0.351 OA
ATOM     27  C   UNL d   1     -10.976   7.701  -6.945  0.00  0.00     0.210 C 
ENDBRANCH   9  26
TORSDOF 6
ENDMDL
MODEL 5
REMARK VINA RESULT:    -8.027     25.652     27.464
REMARK INTER + INTRA:          -5.319
REMARK INTER:                 -10.401
REMARK INTRA:                   5.083
REMARK UNBOUND:                 5.055
REMARK  6 active torsions:
REMARK  status: ('A' for Active; 'I' for Inactive)
REMARK    1  A    between atoms: O_2  and  C_15 
REMARK    2  A    between atoms: O_3  and  C_17 
REMARK    3  A    between atoms: O_4  and  C_11 
REMARK    4  A    between atoms: O_6  and  C_22 
REMARK    5  A    between atoms: O_7  and  C_20 
REMARK    6  A    between atoms: C_10  and  C_13 
ROOT
ATOM      1  O   UNL d   1     -22.280  32.423 -12.793  0.00  0.00    -0.309 OA
ATOM      2  O   UNL d   1     -23.756  30.854 -10.607  0.00  0.00    -0.287 OA
ATOM      3  C   UNL d   1     -23.505  31.227 -12.319  0.00  0.00     0.084 A 
ATOM      4  C   UNL d   1     -23.026  31.736 -13.034  0.00  0.00     0.096 A 
ATOM      5  C   UNL d   1     -22.030  32.580 -11.794  0.00  0.00     0.090 A 
ATOM      6  C   UNL d   1     -24.219  30.571 -12.565  0.00  0.00     0.119 A 
ATOM      7  C   UNL d   1     -23.271  31.369 -11.314  0.00  0.00     0.190 A 
ATOM      8  C   UNL d   1     -23.261  31.590 -13.995  0.00  0.00     0.078 A 
ATOM      9  C   UNL d   1     -24.454  30.425 -13.525  0.00  0.00     0.136 A 
ATOM     10  C   UNL d   1     -22.529  32.049 -11.049  0.00  0.00     0.094 A 
ATOM     11  C   UNL d   1     -23.975  30.935 -14.240  0.00  0.00     0.107 A 
ENDROOT
BRANCH   5  12
ATOM     12  C   UNL d   1     -21.315  33.236 -11.552  0.00  0.00     0.001 A 
ATOM     13  C   UNL d   1     -20.365  32.936 -11.478  0.00  0.00     0.053 A 
ATOM     14  C   UNL d   1     -19.649  33.591 -11.236  0.00  0.00     0.099 A 
ATOM     15  C   UNL d   1     -19.886  34.548 -11.067  0.00  0.00     0.101 A 
ATOM     16  C   UNL d   1     -20.837  34.849 -11.141  0.00  0.00     0.040 A 
ATOM     17  C   UNL d   1     -21.551  34.193 -11.383  0.00  0.00     0.017 A 
BRANCH  14  18
ATOM     18  O   UNL d   1     -18.698  33.291 -11.162  0.00  0.00    -0.358 OA
ATOM     19  H   UNL d   1     -18.568  32.698 -11.042  0.00  0.00     0.217 HD
ENDBRANCH  14  18
BRANCH  15  20
ATOM     20  O   UNL d   1     -19.172  35.205 -10.825  0.00  0.00    -0.353 OA
ATOM     21  C   UNL d   1     -19.314  36.181 -10.984  0.00  0.00     0.210 C 
ENDBRANCH  15  20
ENDBRANCH   5  12
BRANCH   6  22
ATOM     22  O   UNL d   1     -24.698  30.062 -11.850  0.00  0.00    -0.357 OA
ATOM     23  H   UNL d   1     -24.408  29.926 -11.319  0.00  0.00     0.218 HD
ENDBRANCH   6  22
BRANCH  11  24
ATOM     24  O   UNL d   1     -24.210  30.789 -15.201  0.00  0.00    -0.353 OA
ATOM     25  C   UNL d   1     -23.895  31.434 -15.897  0.00  0.00     0.210 C 
ENDBRANCH  11  24
BRANCH   9  26
ATOM     26  O   UNL d   1     -25.168  29.770 -13.771  0.00  0.00    -0.351 OA
ATOM     27  C   UNL d   1     -26.131  30.005 -13.637  0.00  0.00     0.210 C 
ENDBRANCH   9  26
TORSDOF 6
ENDMDL
