MODEL 1
REMARK VINA RESULT:    -8.789      0.000      0.000
REMARK INTER + INTRA:          -8.626
REMARK INTER:                 -10.464
REMARK INTRA:                   1.838
REMARK UNBOUND:                 1.962
REMARK  5 active torsions:
REMARK  status: ('A' for Active; 'I' for Inactive)
REMARK    1  A    between atoms: O_2  and  C_13 
REMARK    2  A    between atoms: O_3  and  C_19 
REMARK    3  A    between atoms: O_5  and  C_17 
REMARK    4  A    between atoms: O_6  and  C_21 
REMARK    5  A    between atoms: C_8  and  C_10 
ROOT
ATOM      1  O   UNL d   1     -21.896  32.104 -12.791  0.00  0.00    -0.309 OA
ATOM      2  O   UNL d   1     -23.687  30.984 -10.661  0.00  0.00    -0.287 OA
ATOM      3  C   UNL d   1     -23.173  31.036 -12.314  0.00  0.00     0.081 A 
ATOM      4  C   UNL d   1     -21.813  32.426 -11.848  0.00  0.00     0.090 A 
ATOM      5  C   UNL d   1     -22.576  31.409 -13.024  0.00  0.00     0.095 A 
ATOM      6  C   UNL d   1     -23.090  31.357 -11.371  0.00  0.00     0.190 A 
ATOM      7  C   UNL d   1     -22.410  32.053 -11.138  0.00  0.00     0.094 A 
ATOM      8  C   UNL d   1     -23.886  30.311 -12.542  0.00  0.00     0.085 A 
ATOM      9  C   UNL d   1     -22.651  31.084 -14.011  0.00  0.00     0.075 A 
ATOM     10  C   UNL d   1     -23.357  30.360 -14.261  0.00  0.00     0.071 A 
ATOM     11  C   UNL d   1     -23.978  29.971 -13.522  0.00  0.00     0.074 A 
ENDROOT
BRANCH   4  12
ATOM     12  C   UNL d   1     -21.133  33.121 -11.615  0.00  0.00     0.001 A 
ATOM     13  C   UNL d   1     -20.244  32.848 -11.249  0.00  0.00     0.054 A 
ATOM     14  C   UNL d   1     -19.564  33.543 -11.016  0.00  0.00     0.102 A 
ATOM     15  C   UNL d   1     -19.773  34.512 -11.149  0.00  0.00     0.099 A 
ATOM     16  C   UNL d   1     -20.663  34.785 -11.515  0.00  0.00     0.040 A 
ATOM     17  C   UNL d   1     -21.343  34.090 -11.748  0.00  0.00     0.017 A 
BRANCH  14  18
ATOM     18  O   UNL d   1     -18.674  33.270 -10.650  0.00  0.00    -0.353 OA
ATOM     19  C   UNL d   1     -18.351  32.331 -10.770  0.00  0.00     0.210 C 
ENDBRANCH  14  18
BRANCH  15  20
ATOM     20  O   UNL d   1     -19.094  35.207 -10.916  0.00  0.00    -0.358 OA
ATOM     21  H   UNL d   1     -18.891  35.260 -10.332  0.00  0.00     0.217 HD
ENDBRANCH  15  20
ENDBRANCH   4  12
BRANCH   8  22
ATOM     22  O   UNL d   1     -24.477  29.945 -11.823  0.00  0.00    -0.360 OA
ATOM     23  H   UNL d   1     -24.254  29.860 -11.252  0.00  0.00     0.217 HD
ENDBRANCH   8  22
BRANCH  10  24
ATOM     24  O   UNL d   1     -23.436  30.040 -15.206  0.00  0.00    -0.361 OA
ATOM     25  H   UNL d   1     -23.023  29.638 -15.432  0.00  0.00     0.217 HD
ENDBRANCH  10  24
TORSDOF 5
ENDMDL
MODEL 2
REMARK VINA RESULT:    -8.700      0.898      1.908
REMARK INTER + INTRA:          -8.518
REMARK INTER:                 -10.444
REMARK INTRA:                   1.925
REMARK UNBOUND:                 1.962
REMARK  5 active torsions:
REMARK  status: ('A' for Active; 'I' for Inactive)
REMARK    1  A    between atoms: O_2  and  C_13 
REMARK    2  A    between atoms: O_3  and  C_19 
REMARK    3  A    between atoms: O_5  and  C_17 
REMARK    4  A    between atoms: O_6  and  C_21 
REMARK    5  A    between atoms: C_8  and  C_10 
ROOT
ATOM      1  O   UNL d   1     -22.813  31.712 -11.494  0.00  0.00    -0.309 OA
ATOM      2  O   UNL d   1     -22.262  30.506 -14.185  0.00  0.00    -0.287 OA
ATOM      3  C   UNL d   1     -23.220  30.584 -12.743  0.00  0.00     0.081 A 
ATOM      4  C   UNL d   1     -22.039  32.036 -12.038  0.00  0.00     0.090 A 
ATOM      5  C   UNL d   1     -23.403  30.987 -11.846  0.00  0.00     0.095 A 
ATOM      6  C   UNL d   1     -22.446  30.908 -13.288  0.00  0.00     0.190 A 
ATOM      7  C   UNL d   1     -21.855  31.634 -12.935  0.00  0.00     0.094 A 
ATOM      8  C   UNL d   1     -23.826  29.828 -13.124  0.00  0.00     0.085 A 
ATOM      9  C   UNL d   1     -24.205  30.660 -11.268  0.00  0.00     0.075 A 
ATOM     10  C   UNL d   1     -24.825  29.904 -11.628  0.00  0.00     0.071 A 
ATOM     11  C   UNL d   1     -24.634  29.486 -12.562  0.00  0.00     0.074 A 
ENDROOT
BRANCH   4  12
ATOM     12  C   UNL d   1     -21.448  32.762 -11.685  0.00  0.00     0.001 A 
ATOM     13  C   UNL d   1     -20.584  32.531 -11.238  0.00  0.00     0.054 A 
ATOM     14  C   UNL d   1     -19.994  33.257 -10.885  0.00  0.00     0.102 A 
ATOM     15  C   UNL d   1     -20.267  34.214 -10.980  0.00  0.00     0.099 A 
ATOM     16  C   UNL d   1     -21.131  34.445 -11.428  0.00  0.00     0.040 A 
ATOM     17  C   UNL d   1     -21.722  33.719 -11.780  0.00  0.00     0.017 A 
BRANCH  14  18
ATOM     18  O   UNL d   1     -19.130  33.025 -10.437  0.00  0.00    -0.353 OA
ATOM     19  C   UNL d   1     -18.523  32.344 -10.845  0.00  0.00     0.210 C 
ENDBRANCH  14  18
BRANCH  15  20
ATOM     20  O   UNL d   1     -19.677  34.940 -10.627  0.00  0.00    -0.358 OA
ATOM     21  H   UNL d   1     -19.379  34.863 -10.089  0.00  0.00     0.217 HD
ENDBRANCH  15  20
ENDBRANCH   4  12
BRANCH   8  22
ATOM     22  O   UNL d   1     -23.633  29.433 -14.022  0.00  0.00    -0.360 OA
ATOM     23  H   UNL d   1     -23.891  29.678 -14.529  0.00  0.00     0.217 HD
ENDBRANCH   8  22
BRANCH  10  24
ATOM     24  O   UNL d   1     -25.598  29.583 -11.081  0.00  0.00    -0.361 OA
ATOM     25  H   UNL d   1     -26.176  29.646 -11.295  0.00  0.00     0.217 HD
ENDBRANCH  10  24
TORSDOF 5
ENDMDL
MODEL 3
REMARK VINA RESULT:    -8.503     24.135     26.670
REMARK INTER + INTRA:          -8.281
REMARK INTER:                 -10.272
REMARK INTRA:                   1.991
REMARK UNBOUND:                 1.962
REMARK  5 active torsions:
REMARK  status: ('A' for Active; 'I' for Inactive)
REMARK    1  A    between atoms: O_2  and  C_13 
REMARK    2  A    between atoms: O_3  and  C_19 
REMARK    3  A    between atoms: O_5  and  C_17 
REMARK    4  A    between atoms: O_6  and  C_21 
REMARK    5  A    between atoms: C_8  and  C_10 
ROOT
ATOM      1  O   UNL d   1     -16.254  17.122 -32.991  0.00  0.00    -0.309 OA
ATOM      2  O   UNL d   1     -15.439  17.762 -35.806  0.00  0.00    -0.287 OA
ATOM      3  C   UNL d   1     -16.678  17.544 -34.616  0.00  0.00     0.081 A 
ATOM      4  C   UNL d   1     -15.286  17.126 -33.243  0.00  0.00     0.090 A 
ATOM      5  C   UNL d   1     -16.950  17.331 -33.678  0.00  0.00     0.095 A 
ATOM      6  C   UNL d   1     -15.710  17.549 -34.868  0.00  0.00     0.190 A 
ATOM      7  C   UNL d   1     -15.014  17.340 -34.181  0.00  0.00     0.094 A 
ATOM      8  C   UNL d   1     -17.392  17.763 -35.342  0.00  0.00     0.085 A 
ATOM      9  C   UNL d   1     -17.954  17.322 -33.400  0.00  0.00     0.075 A 
ATOM     10  C   UNL d   1     -18.685  17.539 -34.110  0.00  0.00     0.071 A 
ATOM     11  C   UNL d   1     -18.402  17.761 -35.087  0.00  0.00     0.074 A 
ENDROOT
BRANCH   4  12
ATOM     12  C   UNL d   1     -14.590  16.918 -32.556  0.00  0.00     0.001 A 
ATOM     13  C   UNL d   1     -14.594  17.396 -31.678  0.00  0.00     0.054 A 
ATOM     14  C   UNL d   1     -13.898  17.187 -30.991  0.00  0.00     0.102 A 
ATOM     15  C   UNL d   1     -13.197  16.500 -31.182  0.00  0.00     0.099 A 
ATOM     16  C   UNL d   1     -13.193  16.022 -32.060  0.00  0.00     0.040 A 
ATOM     17  C   UNL d   1     -13.889  16.230 -32.747  0.00  0.00     0.017 A 
BRANCH  14  18
ATOM     18  O   UNL d   1     -13.903  17.666 -30.113  0.00  0.00    -0.353 OA
ATOM     19  C   UNL d   1     -14.492  18.462 -29.980  0.00  0.00     0.210 C 
ENDBRANCH  14  18
BRANCH  15  20
ATOM     20  O   UNL d   1     -12.501  16.291 -30.495  0.00  0.00    -0.358 OA
ATOM     21  H   UNL d   1     -12.623  16.379 -29.894  0.00  0.00     0.217 HD
ENDBRANCH  15  20
ENDBRANCH   4  12
BRANCH   8  22
ATOM     22  O   UNL d   1     -17.109  17.975 -36.277  0.00  0.00    -0.360 OA
ATOM     23  H   UNL d   1     -17.533  18.016 -36.728  0.00  0.00     0.217 HD
ENDBRANCH   8  22
BRANCH  10  24
ATOM     24  O   UNL d   1     -19.652  17.533 -33.854  0.00  0.00    -0.361 OA
ATOM     25  H   UNL d   1     -19.885  17.054 -33.537  0.00  0.00     0.217 HD
ENDBRANCH  10  24
TORSDOF 5
ENDMDL
MODEL 4
REMARK VINA RESULT:    -8.436     30.029     31.798
REMARK INTER + INTRA:          -8.200
REMARK INTER:                 -10.300
REMARK INTRA:                   2.100
REMARK UNBOUND:                 1.962
REMARK  5 active torsions:
REMARK  status: ('A' for Active; 'I' for Inactive)
REMARK    1  A    between atoms: O_2  and  C_13 
REMARK    2  A    between atoms: O_3  and  C_19 
REMARK    3  A    between atoms: O_5  and  C_17 
REMARK    4  A    between atoms: O_6  and  C_21 
REMARK    5  A    between atoms: C_8  and  C_10 
ROOT
ATOM      1  O   UNL d   1     -42.917   9.364 -17.810  0.00  0.00    -0.309 OA
ATOM      2  O   UNL d   1     -40.989  10.053 -15.618  0.00  0.00    -0.287 OA
ATOM      3  C   UNL d   1     -42.545  10.231 -16.358  0.00  0.00     0.081 A 
ATOM      4  C   UNL d   1     -42.004   8.956 -17.801  0.00  0.00     0.090 A 
ATOM      5  C   UNL d   1     -43.188  10.001 -17.088  0.00  0.00     0.095 A 
ATOM      6  C   UNL d   1     -41.632   9.823 -16.349  0.00  0.00     0.190 A 
ATOM      7  C   UNL d   1     -41.361   9.186 -17.071  0.00  0.00     0.094 A 
ATOM      8  C   UNL d   1     -42.812  10.893 -15.600  0.00  0.00     0.085 A 
ATOM      9  C   UNL d   1     -44.142  10.418 -17.111  0.00  0.00     0.075 A 
ATOM     10  C   UNL d   1     -44.431  11.082 -16.363  0.00  0.00     0.071 A 
ATOM     11  C   UNL d   1     -43.761  11.321 -15.602  0.00  0.00     0.074 A 
ENDROOT
BRANCH   4  12
ATOM     12  C   UNL d   1     -41.734   8.319 -18.523  0.00  0.00     0.001 A 
ATOM     13  C   UNL d   1     -42.388   7.645 -18.866  0.00  0.00     0.054 A 
ATOM     14  C   UNL d   1     -42.118   7.008 -19.587  0.00  0.00     0.102 A 
ATOM     15  C   UNL d   1     -41.194   7.045 -19.967  0.00  0.00     0.099 A 
ATOM     16  C   UNL d   1     -40.539   7.719 -19.624  0.00  0.00     0.040 A 
ATOM     17  C   UNL d   1     -40.810   8.356 -18.903  0.00  0.00     0.017 A 
BRANCH  14  18
ATOM     18  O   UNL d   1     -42.773   6.334 -19.930  0.00  0.00    -0.353 OA
ATOM     19  C   UNL d   1     -43.751   6.541 -19.929  0.00  0.00     0.210 C 
ENDBRANCH  14  18
BRANCH  15  20
ATOM     20  O   UNL d   1     -40.924   6.408 -20.689  0.00  0.00    -0.358 OA
ATOM     21  H   UNL d   1     -40.886   6.603 -21.276  0.00  0.00     0.217 HD
ENDBRANCH  15  20
ENDBRANCH   4  12
BRANCH   8  22
ATOM     22  O   UNL d   1     -42.161  11.115 -14.874  0.00  0.00    -0.360 OA
ATOM     23  H   UNL d   1     -41.591  10.872 -14.884  0.00  0.00     0.217 HD
ENDBRANCH   8  22
BRANCH  10  24
ATOM     24  O   UNL d   1     -45.345  11.488 -16.376  0.00  0.00    -0.361 OA
ATOM     25  H   UNL d   1     -45.463  11.974 -16.742  0.00  0.00     0.217 HD
ENDBRANCH  10  24
TORSDOF 5
ENDMDL
MODEL 5
REMARK VINA RESULT:    -8.404     24.860     26.801
REMARK INTER + INTRA:          -8.162
REMARK INTER:                 -10.160
REMARK INTRA:                   1.998
REMARK UNBOUND:                 1.962
REMARK  5 active torsions:
REMARK  status: ('A' for Active; 'I' for Inactive)
REMARK    1  A    between atoms: O_2  and  C_13 
REMARK    2  A    between atoms: O_3  and  C_19 
REMARK    3  A    between atoms: O_5  and  C_17 
REMARK    4  A    between atoms: O_6  and  C_21 
REMARK    5  A    between atoms: C_8  and  C_10 
ROOT
ATOM      1  O   UNL d   1     -15.675  17.566 -34.049  0.00  0.00    -0.309 OA
ATOM      2  O   UNL d   1     -18.606  17.552 -33.409  0.00  0.00    -0.287 OA
ATOM      3  C   UNL d   1     -17.325  17.648 -34.571  0.00  0.00     0.081 A 
ATOM      4  C   UNL d   1     -15.979  17.475 -33.101  0.00  0.00     0.090 A 
ATOM      5  C   UNL d   1     -16.348  17.653 -34.784  0.00  0.00     0.095 A 
ATOM      6  C   UNL d   1     -17.629  17.557 -33.623  0.00  0.00     0.190 A 
ATOM      7  C   UNL d   1     -16.956  17.470 -32.888  0.00  0.00     0.094 A 
ATOM      8  C   UNL d   1     -18.037  17.738 -35.325  0.00  0.00     0.085 A 
ATOM      9  C   UNL d   1     -16.015  17.747 -35.767  0.00  0.00     0.075 A 
ATOM     10  C   UNL d   1     -16.710  17.838 -36.538  0.00  0.00     0.071 A 
ATOM     11  C   UNL d   1     -17.727  17.833 -36.315  0.00  0.00     0.074 A 
ENDROOT
BRANCH   4  12
ATOM     12  C   UNL d   1     -15.307  17.388 -32.366  0.00  0.00     0.001 A 
ATOM     13  C   UNL d   1     -14.556  16.733 -32.450  0.00  0.00     0.054 A 
ATOM     14  C   UNL d   1     -13.883  16.647 -31.716  0.00  0.00     0.102 A 
ATOM     15  C   UNL d   1     -13.961  17.215 -30.897  0.00  0.00     0.099 A 
ATOM     16  C   UNL d   1     -14.712  17.870 -30.813  0.00  0.00     0.040 A 
ATOM     17  C   UNL d   1     -15.385  17.957 -31.547  0.00  0.00     0.017 A 
BRANCH  14  18
ATOM     18  O   UNL d   1     -13.133  15.991 -31.800  0.00  0.00    -0.353 OA
ATOM     19  C   UNL d   1     -12.991  15.501 -32.660  0.00  0.00     0.210 C 
ENDBRANCH  14  18
BRANCH  15  20
ATOM     20  O   UNL d   1     -13.289  17.129 -30.162  0.00  0.00    -0.358 OA
ATOM     21  H   UNL d   1     -12.727  17.384 -30.224  0.00  0.00     0.217 HD
ENDBRANCH  15  20
ENDBRANCH   4  12
BRANCH   8  22
ATOM     22  O   UNL d   1     -19.011  17.732 -35.100  0.00  0.00    -0.360 OA
ATOM     23  H   UNL d   1     -19.432  17.669 -35.550  0.00  0.00     0.217 HD
ENDBRANCH   8  22
BRANCH  10  24
ATOM     24  O   UNL d   1     -16.402  17.929 -37.485  0.00  0.00    -0.361 OA
ATOM     25  H   UNL d   1     -16.814  18.030 -37.936  0.00  0.00     0.217 HD
ENDBRANCH  10  24
TORSDOF 5
ENDMDL
