MODEL 1
REMARK VINA RESULT:   -11.031      0.000      0.000
REMARK INTER + INTRA:         -12.294
REMARK INTER:                 -13.600
REMARK INTRA:                   1.305
REMARK UNBOUND:                 1.316
REMARK  6 active torsions:
REMARK  status: ('A' for Active; 'I' for Inactive)
REMARK    1  A    between atoms: C_22  and  O_1 
REMARK    2  A    between atoms: C_24  and  O_2 
REMARK    3  A    between atoms: O_3  and  C_30 
REMARK    4  A    between atoms: O_4  and  C_33 
REMARK    5  A    between atoms: C_14  and  C_30 
REMARK    6  A    between atoms: C_19  and  C_33 
ROOT
ATOM      1  C   UNL d   1      -2.006  29.289  42.023  0.00  0.00    -0.028 A 
ATOM      2  C   UNL d   1      -1.273  29.850  42.408  0.00  0.00     0.007 A 
ATOM      3  C   UNL d   1      -0.348  29.433  42.643  0.00  0.00    -0.033 A 
ATOM      4  C   UNL d   1      -2.889  29.703  41.803  0.00  0.00    -0.013 A 
ATOM      5  C   UNL d   1      -0.184  28.419  42.474  0.00  0.00     0.007 A 
ATOM      6  C   UNL d   1      -1.865  28.273  41.846  0.00  0.00     0.011 A 
ATOM      7  C   UNL d   1      -3.040  30.678  41.968  0.00  0.00    -0.069 A 
ATOM      8  C   UNL d   1      -0.948  27.835  42.073  0.00  0.00     0.007 A 
ATOM      9  C   UNL d   1       0.772  27.962  42.711  0.00  0.00     0.010 A 
ATOM     10  C   UNL d   1      -3.954  31.124  41.743  0.00  0.00     0.038 A 
ATOM     11  C   UNL d   1      -1.424  30.825  42.573  0.00  0.00     0.033 A 
ATOM     12  C   UNL d   1       0.432  30.061  43.060  0.00  0.00     0.044 A 
ATOM     13  C   UNL d   1      -3.643  29.106  41.402  0.00  0.00     0.016 A 
ATOM     14  C   UNL d   1      -4.722  30.546  41.342  0.00  0.00     0.053 A 
ATOM     15  C   UNL d   1      -2.491  28.488  41.672  0.00  0.00     0.016 C 
ATOM     16  C   UNL d   1      -4.566  29.531  41.170  0.00  0.00     0.022 A 
ATOM     17  C   UNL d   1       1.566  28.570  43.129  0.00  0.00     0.157 A 
ATOM     18  C   UNL d   1      -2.307  31.239  42.353  0.00  0.00    -0.022 A 
ATOM     19  C   UNL d   1       1.396  29.627  43.305  0.00  0.00     0.148 A 
ATOM     20  C   UNL d   1      -0.506  30.407  42.805  0.00  0.00     0.016 C 
ATOM     21  C   UNL d   1      -3.067  28.758  41.528  0.00  0.00     0.021 C 
ATOM     22  C   UNL d   1      -4.094  32.183  41.931  0.00  0.00    -0.005 A 
ATOM     23  C   UNL d   1      -5.683  30.988  41.100  0.00  0.00     0.021 A 
ATOM     24  C   UNL d   1      -5.046  32.647  41.697  0.00  0.00    -0.014 A 
ATOM     25  C   UNL d   1       0.431  27.077  42.392  0.00  0.00     0.020 C 
ATOM     26  C   UNL d   1      -5.847  32.045  41.279  0.00  0.00     0.006 A 
ATOM     27  C   UNL d   1      -3.349  32.729  42.317  0.00  0.00     0.011 C 
ATOM     28  C   UNL d   1      -5.185  33.623  41.866  0.00  0.00     0.010 C 
ENDROOT
BRANCH   9  29
ATOM     29  C   UNL d   1       1.365  27.158  42.741  0.00  0.00     0.176 C 
BRANCH  29  30
ATOM     30  O   UNL d   1       0.966  26.241  42.730  0.00  0.00    -0.400 OA
ATOM     31  H   UNL d   1       0.527  26.099  42.317  0.00  0.00     0.209 HD
ENDBRANCH  29  30
ENDBRANCH   9  29
BRANCH  17  32
ATOM     32  O   UNL d   1       2.451  28.160  43.350  0.00  0.00    -0.392 OA
ATOM     33  H   UNL d   1       2.972  28.489  43.282  0.00  0.00     0.210 HD
ENDBRANCH  17  32
BRANCH  19  34
ATOM     34  O   UNL d   1       2.122  30.197  43.690  0.00  0.00    -0.393 OA
ATOM     35  H   UNL d   1       2.008  30.789  43.832  0.00  0.00     0.210 HD
ENDBRANCH  19  34
BRANCH  14  36
ATOM     36  C   UNL d   1      -5.460  29.992  40.956  0.00  0.00     0.149 C 
ATOM     37  O   UNL d   1      -5.551  29.903  39.964  0.00  0.00    -0.649 OA
BRANCH  36  38
ATOM     38  O   UNL d   1      -6.105  29.527  41.561  0.00  0.00    -0.776 OA
ATOM     39  H   UNL d   1      -6.074  29.615  42.174  0.00  0.00     0.167 HD
ENDBRANCH  36  38
ENDBRANCH  14  36
TORSDOF 6
ENDMDL
MODEL 2
REMARK VINA RESULT:   -10.651     18.914     20.252
REMARK INTER + INTRA:         -11.825
REMARK INTER:                 -13.140
REMARK INTRA:                   1.314
REMARK UNBOUND:                 1.316
REMARK  6 active torsions:
REMARK  status: ('A' for Active; 'I' for Inactive)
REMARK    1  A    between atoms: C_22  and  O_1 
REMARK    2  A    between atoms: C_24  and  O_2 
REMARK    3  A    between atoms: O_3  and  C_30 
REMARK    4  A    between atoms: O_4  and  C_33 
REMARK    5  A    between atoms: C_14  and  C_30 
REMARK    6  A    between atoms: C_19  and  C_33 
ROOT
ATOM      1  C   UNL d   1       8.331  13.015  44.374  0.00  0.00    -0.028 A 
ATOM      2  C   UNL d   1       7.628  12.337  44.590  0.00  0.00     0.007 A 
ATOM      3  C   UNL d   1       7.526  11.963  45.556  0.00  0.00    -0.033 A 
ATOM      4  C   UNL d   1       8.418  13.365  43.441  0.00  0.00    -0.013 A 
ATOM      5  C   UNL d   1       8.164  12.298  46.307  0.00  0.00     0.007 A 
ATOM      6  C   UNL d   1       8.981  13.364  45.109  0.00  0.00     0.011 A 
ATOM      7  C   UNL d   1       7.801  13.039  42.725  0.00  0.00    -0.069 A 
ATOM      8  C   UNL d   1       8.897  13.004  46.082  0.00  0.00     0.007 A 
ATOM      9  C   UNL d   1       8.077  11.922  47.322  0.00  0.00     0.010 A 
ATOM     10  C   UNL d   1       7.879  13.395  41.749  0.00  0.00     0.038 A 
ATOM     11  C   UNL d   1       7.012  12.011  43.874  0.00  0.00     0.033 A 
ATOM     12  C   UNL d   1       6.756  11.228  45.767  0.00  0.00     0.044 A 
ATOM     13  C   UNL d   1       9.155  14.071  43.232  0.00  0.00     0.016 A 
ATOM     14  C   UNL d   1       8.609  14.100  41.516  0.00  0.00     0.053 A 
ATOM     15  C   UNL d   1       9.097  13.647  44.496  0.00  0.00     0.016 C 
ATOM     16  C   UNL d   1       9.252  14.441  42.263  0.00  0.00     0.022 A 
ATOM     17  C   UNL d   1       7.314  11.188  47.557  0.00  0.00     0.157 A 
ATOM     18  C   UNL d   1       7.098  12.361  42.941  0.00  0.00    -0.022 A 
ATOM     19  C   UNL d   1       6.649  10.838  46.774  0.00  0.00     0.148 A 
ATOM     20  C   UNL d   1       6.913  11.641  44.835  0.00  0.00     0.016 C 
ATOM     21  C   UNL d   1       9.153  13.875  43.888  0.00  0.00     0.021 C 
ATOM     22  C   UNL d   1       7.199  13.026  40.989  0.00  0.00    -0.005 A 
ATOM     23  C   UNL d   1       8.710  14.486  40.507  0.00  0.00     0.021 A 
ATOM     24  C   UNL d   1       7.280  13.396  39.973  0.00  0.00    -0.014 A 
ATOM     25  C   UNL d   1       8.839  12.503  47.607  0.00  0.00     0.020 C 
ATOM     26  C   UNL d   1       8.041  14.131  39.730  0.00  0.00     0.006 A 
ATOM     27  C   UNL d   1       6.502  12.347  41.223  0.00  0.00     0.011 C 
ATOM     28  C   UNL d   1       6.658  13.063  39.264  0.00  0.00     0.010 C 
ENDROOT
BRANCH   9  29
ATOM     29  C   UNL d   1       8.386  11.911  48.273  0.00  0.00     0.176 C 
BRANCH  29  30
ATOM     30  O   UNL d   1       8.787  12.732  48.678  0.00  0.00    -0.400 OA
ATOM     31  H   UNL d   1       9.308  12.972  48.442  0.00  0.00     0.209 HD
ENDBRANCH  29  30
ENDBRANCH   9  29
BRANCH  17  32
ATOM     32  O   UNL d   1       7.225  10.834  48.487  0.00  0.00    -0.392 OA
ATOM     33  H   UNL d   1       7.676  10.932  48.902  0.00  0.00     0.210 HD
ENDBRANCH  17  32
BRANCH  19  34
ATOM     34  O   UNL d   1       5.943  10.161  46.979  0.00  0.00    -0.393 OA
ATOM     35  H   UNL d   1       5.998   9.581  46.767  0.00  0.00     0.210 HD
ENDBRANCH  19  34
BRANCH  14  36
ATOM     36  C   UNL d   1       9.310  14.778  41.292  0.00  0.00     0.149 C 
ATOM     37  O   UNL d   1       9.092  15.753  41.335  0.00  0.00    -0.649 OA
BRANCH  36  38
ATOM     38  O   UNL d   1      10.226  14.481  41.027  0.00  0.00    -0.776 OA
ATOM     39  H   UNL d   1      10.339  13.881  40.919  0.00  0.00     0.167 HD
ENDBRANCH  36  38
ENDBRANCH  14  36
TORSDOF 6
ENDMDL
MODEL 3
REMARK VINA RESULT:   -10.642      1.102      2.596
REMARK INTER + INTRA:         -11.815
REMARK INTER:                 -13.147
REMARK INTRA:                   1.332
REMARK UNBOUND:                 1.316
REMARK  6 active torsions:
REMARK  status: ('A' for Active; 'I' for Inactive)
REMARK    1  A    between atoms: C_22  and  O_1 
REMARK    2  A    between atoms: C_24  and  O_2 
REMARK    3  A    between atoms: O_3  and  C_30 
REMARK    4  A    between atoms: O_4  and  C_33 
REMARK    5  A    between atoms: C_14  and  C_30 
REMARK    6  A    between atoms: C_19  and  C_33 
ROOT
ATOM      1  C   UNL d   1      -1.788  30.187  42.230  0.00  0.00    -0.028 A 
ATOM      2  C   UNL d   1      -1.693  29.211  42.033  0.00  0.00     0.007 A 
ATOM      3  C   UNL d   1      -0.822  28.698  42.284  0.00  0.00    -0.033 A 
ATOM      4  C   UNL d   1      -2.630  30.667  41.984  0.00  0.00    -0.013 A 
ATOM      5  C   UNL d   1      -0.040  29.207  42.745  0.00  0.00     0.007 A 
ATOM      6  C   UNL d   1      -1.019  30.717  42.691  0.00  0.00     0.011 A 
ATOM      7  C   UNL d   1      -3.377  30.171  41.541  0.00  0.00    -0.069 A 
ATOM      8  C   UNL d   1      -0.139  30.224  42.950  0.00  0.00     0.007 A 
ATOM      9  C   UNL d   1       0.877  28.693  43.016  0.00  0.00     0.010 A 
ATOM     10  C   UNL d   1      -4.260  30.657  41.278  0.00  0.00     0.038 A 
ATOM     11  C   UNL d   1      -2.440  28.715  41.590  0.00  0.00     0.033 A 
ATOM     12  C   UNL d   1      -0.742  27.639  42.061  0.00  0.00     0.044 A 
ATOM     13  C   UNL d   1      -2.714  31.684  42.195  0.00  0.00     0.016 A 
ATOM     14  C   UNL d   1      -4.367  31.674  41.480  0.00  0.00     0.053 A 
ATOM     15  C   UNL d   1      -1.564  31.107  42.551  0.00  0.00     0.016 C 
ATOM     16  C   UNL d   1      -3.588  32.190  41.941  0.00  0.00     0.022 A 
ATOM     17  C   UNL d   1       0.980  27.635  42.803  0.00  0.00     0.157 A 
ATOM     18  C   UNL d   1      -3.282  29.195  41.344  0.00  0.00    -0.022 A 
ATOM     19  C   UNL d   1       0.165  27.104  42.322  0.00  0.00     0.148 A 
ATOM     20  C   UNL d   1      -1.573  28.209  41.841  0.00  0.00     0.016 C 
ATOM     21  C   UNL d   1      -2.113  31.421  42.390  0.00  0.00     0.021 C 
ATOM     22  C   UNL d   1      -5.057  30.099  40.799  0.00  0.00    -0.005 A 
ATOM     23  C   UNL d   1      -5.277  32.202  41.216  0.00  0.00     0.021 A 
ATOM     24  C   UNL d   1      -5.976  30.605  40.526  0.00  0.00    -0.014 A 
ATOM     25  C   UNL d   1       1.250  29.546  43.384  0.00  0.00     0.020 C 
ATOM     26  C   UNL d   1      -6.087  31.664  40.735  0.00  0.00     0.006 A 
ATOM     27  C   UNL d   1      -4.944  29.122  40.610  0.00  0.00     0.011 C 
ATOM     28  C   UNL d   1      -6.717  30.099  40.083  0.00  0.00     0.010 C 
ENDROOT
BRANCH   9  29
ATOM     29  C   UNL d   1       1.794  28.707  43.414  0.00  0.00     0.176 C 
BRANCH  29  30
ATOM     30  O   UNL d   1       1.978  29.260  44.227  0.00  0.00    -0.400 OA
ATOM     31  H   UNL d   1       2.242  29.001  44.724  0.00  0.00     0.209 HD
ENDBRANCH  29  30
ENDBRANCH   9  29
BRANCH  17  32
ATOM     32  O   UNL d   1       1.820  27.152  43.047  0.00  0.00    -0.392 OA
ATOM     33  H   UNL d   1       1.823  26.533  43.082  0.00  0.00     0.210 HD
ENDBRANCH  17  32
BRANCH  19  34
ATOM     34  O   UNL d   1       0.250  26.128  42.120  0.00  0.00    -0.393 OA
ATOM     35  H   UNL d   1      -0.106  25.870  41.683  0.00  0.00     0.210 HD
ENDBRANCH  19  34
BRANCH  14  36
ATOM     36  C   UNL d   1      -4.469  32.649  41.673  0.00  0.00     0.149 C 
ATOM     37  O   UNL d   1      -4.849  32.947  42.549  0.00  0.00    -0.649 OA
BRANCH  36  38
ATOM     38  O   UNL d   1      -4.192  33.327  40.992  0.00  0.00    -0.776 OA
ATOM     39  H   UNL d   1      -3.656  33.259  40.689  0.00  0.00     0.167 HD
ENDBRANCH  36  38
ENDBRANCH  14  36
TORSDOF 6
ENDMDL
MODEL 4
REMARK VINA RESULT:   -10.403     18.809     20.901
REMARK INTER + INTRA:         -11.520
REMARK INTER:                 -12.976
REMARK INTRA:                   1.456
REMARK UNBOUND:                 1.316
REMARK  6 active torsions:
REMARK  status: ('A' for Active; 'I' for Inactive)
REMARK    1  A    between atoms: C_22  and  O_1 
REMARK    2  A    between atoms: C_24  and  O_2 
REMARK    3  A    between atoms: O_3  and  C_30 
REMARK    4  A    between atoms: O_4  and  C_33 
REMARK    5  A    between atoms: C_14  and  C_30 
REMARK    6  A    between atoms: C_19  and  C_33 
ROOT
ATOM      1  C   UNL d   1       8.253  12.756  44.601  0.00  0.00    -0.028 A 
ATOM      2  C   UNL d   1       7.608  12.553  43.865  0.00  0.00     0.007 A 
ATOM      3  C   UNL d   1       7.680  13.034  42.943  0.00  0.00    -0.033 A 
ATOM      4  C   UNL d   1       8.172  12.288  45.480  0.00  0.00    -0.013 A 
ATOM      5  C   UNL d   1       8.433  13.734  42.787  0.00  0.00     0.007 A 
ATOM      6  C   UNL d   1       9.015  13.453  44.467  0.00  0.00     0.011 A 
ATOM      7  C   UNL d   1       7.445  11.616  45.624  0.00  0.00    -0.069 A 
ATOM      8  C   UNL d   1       9.106  13.946  43.554  0.00  0.00     0.007 A 
ATOM      9  C   UNL d   1       8.528  14.248  41.835  0.00  0.00     0.010 A 
ATOM     10  C   UNL d   1       7.347  11.119  46.534  0.00  0.00     0.038 A 
ATOM     11  C   UNL d   1       6.881  11.881  44.008  0.00  0.00     0.033 A 
ATOM     12  C   UNL d   1       6.968  12.797  42.159  0.00  0.00     0.044 A 
ATOM     13  C   UNL d   1       8.851  12.510  46.238  0.00  0.00     0.016 A 
ATOM     14  C   UNL d   1       8.016  11.325  47.306  0.00  0.00     0.053 A 
ATOM     15  C   UNL d   1       9.019  13.172  45.091  0.00  0.00     0.016 C 
ATOM     16  C   UNL d   1       8.773  12.026  47.157  0.00  0.00     0.022 A 
ATOM     17  C   UNL d   1       7.829  14.027  41.036  0.00  0.00     0.157 A 
ATOM     18  C   UNL d   1       6.800  11.413  44.887  0.00  0.00    -0.022 A 
ATOM     19  C   UNL d   1       7.043  13.297  41.199  0.00  0.00     0.148 A 
ATOM     20  C   UNL d   1       6.956  12.360  43.094  0.00  0.00     0.016 C 
ATOM     21  C   UNL d   1       8.966  12.867  45.665  0.00  0.00     0.021 C 
ATOM     22  C   UNL d   1       6.551  10.394  46.666  0.00  0.00    -0.005 A 
ATOM     23  C   UNL d   1       7.934  10.821  48.263  0.00  0.00     0.021 A 
ATOM     24  C   UNL d   1       6.450   9.877  47.614  0.00  0.00    -0.014 A 
ATOM     25  C   UNL d   1       9.320  14.751  42.181  0.00  0.00     0.020 C 
ATOM     26  C   UNL d   1       7.146  10.092  48.419  0.00  0.00     0.006 A 
ATOM     27  C   UNL d   1       5.915  10.204  45.918  0.00  0.00     0.011 C 
ATOM     28  C   UNL d   1       5.719   9.207  47.746  0.00  0.00     0.010 C 
ENDROOT
BRANCH   9  29
ATOM     29  C   UNL d   1       8.998  14.907  41.248  0.00  0.00     0.176 C 
BRANCH  29  30
ATOM     30  O   UNL d   1       9.989  14.854  41.127  0.00  0.00    -0.400 OA
ATOM     31  H   UNL d   1      10.303  15.346  40.920  0.00  0.00     0.209 HD
ENDBRANCH  29  30
ENDBRANCH   9  29
BRANCH  17  32
ATOM     32  O   UNL d   1       7.906  14.494  40.155  0.00  0.00    -0.392 OA
ATOM     33  H   UNL d   1       8.399  14.392  39.792  0.00  0.00     0.210 HD
ENDBRANCH  17  32
BRANCH  19  34
ATOM     34  O   UNL d   1       6.392  13.086  40.470  0.00  0.00    -0.393 OA
ATOM     35  H   UNL d   1       5.911  12.711  40.582  0.00  0.00     0.210 HD
ENDBRANCH  19  34
BRANCH  14  36
ATOM     36  C   UNL d   1       8.657  11.523  48.047  0.00  0.00     0.149 C 
ATOM     37  O   UNL d   1       8.531  12.338  48.613  0.00  0.00    -0.649 OA
BRANCH  36  38
ATOM     38  O   UNL d   1       9.425  10.907  48.223  0.00  0.00    -0.776 OA
ATOM     39  H   UNL d   1       9.703  10.909  48.777  0.00  0.00     0.167 HD
ENDBRANCH  36  38
ENDBRANCH  14  36
TORSDOF 6
ENDMDL
MODEL 5
REMARK VINA RESULT:   -10.236     18.093     21.117
REMARK INTER + INTRA:         -11.313
REMARK INTER:                 -12.647
REMARK INTRA:                   1.334
REMARK UNBOUND:                 1.316
REMARK  6 active torsions:
REMARK  status: ('A' for Active; 'I' for Inactive)
REMARK    1  A    between atoms: C_22  and  O_1 
REMARK    2  A    between atoms: C_24  and  O_2 
REMARK    3  A    between atoms: O_3  and  C_30 
REMARK    4  A    between atoms: O_4  and  C_33 
REMARK    5  A    between atoms: C_14  and  C_30 
REMARK    6  A    between atoms: C_19  and  C_33 
ROOT
ATOM      1  C   UNL d   1       9.301  11.857  44.051  0.00  0.00    -0.028 A 
ATOM      2  C   UNL d   1       8.954  12.398  44.817  0.00  0.00     0.007 A 
ATOM      3  C   UNL d   1       8.952  12.014  45.785  0.00  0.00    -0.033 A 
ATOM      4  C   UNL d   1       9.297  12.239  43.127  0.00  0.00    -0.013 A 
ATOM      5  C   UNL d   1       9.316  11.054  45.958  0.00  0.00     0.007 A 
ATOM      6  C   UNL d   1       9.670  10.895  44.200  0.00  0.00     0.011 A 
ATOM      7  C   UNL d   1       8.946  13.162  42.969  0.00  0.00    -0.069 A 
ATOM      8  C   UNL d   1       9.677  10.490  45.160  0.00  0.00     0.007 A 
ATOM      9  C   UNL d   1       9.324  10.632  46.958  0.00  0.00     0.010 A 
ATOM     10  C   UNL d   1       8.935  13.574  42.012  0.00  0.00     0.038 A 
ATOM     11  C   UNL d   1       8.603  13.321  44.659  0.00  0.00     0.033 A 
ATOM     12  C   UNL d   1       8.571  12.619  46.601  0.00  0.00     0.044 A 
ATOM     13  C   UNL d   1       9.661  11.663  42.339  0.00  0.00     0.016 A 
ATOM     14  C   UNL d   1       9.295  13.016  41.209  0.00  0.00     0.053 A 
ATOM     15  C   UNL d   1       9.697  11.091  43.545  0.00  0.00     0.016 C 
ATOM     16  C   UNL d   1       9.660  12.054  41.374  0.00  0.00     0.022 A 
ATOM     17  C   UNL d   1       8.948  11.218  47.789  0.00  0.00     0.157 A 
ATOM     18  C   UNL d   1       8.599  13.703  43.735  0.00  0.00    -0.022 A 
ATOM     19  C   UNL d   1       8.569  12.219  47.610  0.00  0.00     0.148 A 
ATOM     20  C   UNL d   1       8.603  12.936  45.620  0.00  0.00     0.016 C 
ATOM     21  C   UNL d   1       9.694  11.340  42.942  0.00  0.00     0.021 C 
ATOM     22  C   UNL d   1       8.550  14.577  41.865  0.00  0.00    -0.005 A 
ATOM     23  C   UNL d   1       9.294  13.423  40.203  0.00  0.00     0.021 A 
ATOM     24  C   UNL d   1       8.538  15.005  40.869  0.00  0.00    -0.014 A 
ATOM     25  C   UNL d   1       9.727   9.788  46.603  0.00  0.00     0.020 C 
ATOM     26  C   UNL d   1       8.913  14.425  40.032  0.00  0.00     0.006 A 
ATOM     27  C   UNL d   1       8.207  15.104  42.644  0.00  0.00     0.011 C 
ATOM     28  C   UNL d   1       8.185  15.929  40.722  0.00  0.00     0.010 C 
ENDROOT
BRANCH   9  29
ATOM     29  C   UNL d   1       9.530   9.876  47.579  0.00  0.00     0.176 C 
BRANCH  29  30
ATOM     30  O   UNL d   1      10.361   9.335  47.450  0.00  0.00    -0.400 OA
ATOM     31  H   UNL d   1      10.634   9.066  47.937  0.00  0.00     0.209 HD
ENDBRANCH  29  30
ENDBRANCH   9  29
BRANCH  17  32
ATOM     32  O   UNL d   1       8.950  10.840  48.714  0.00  0.00    -0.392 OA
ATOM     33  H   UNL d   1       9.168  10.268  48.816  0.00  0.00     0.210 HD
ENDBRANCH  17  32
BRANCH  19  34
ATOM     34  O   UNL d   1       8.220  12.769  48.368  0.00  0.00    -0.393 OA
ATOM     35  H   UNL d   1       8.593  12.918  48.841  0.00  0.00     0.210 HD
ENDBRANCH  19  34
BRANCH  14  36
ATOM     36  C   UNL d   1       9.640  12.481  40.438  0.00  0.00     0.149 C 
ATOM     37  O   UNL d   1       9.019  11.889  39.924  0.00  0.00    -0.649 OA
BRANCH  36  38
ATOM     38  O   UNL d   1      10.604  12.538  40.181  0.00  0.00    -0.776 OA
ATOM     39  H   UNL d   1      10.786  12.941  39.746  0.00  0.00     0.167 HD
ENDBRANCH  36  38
ENDBRANCH  14  36
TORSDOF 6
ENDMDL
