MODEL 1
REMARK VINA RESULT:    -7.722      0.000      0.000
REMARK INTER + INTRA:          -7.593
REMARK INTER:                  -8.666
REMARK INTRA:                   1.073
REMARK UNBOUND:                 1.031
REMARK  3 active torsions:
REMARK  status: ('A' for Active; 'I' for Inactive)
REMARK    1  A    between atoms: O_2  and  C_10 
REMARK    2  A    between atoms: O_4  and  C_13 
REMARK    3  A    between atoms: C_7  and  C_9 
ROOT
ATOM      1  O   UNL d   1       7.824  12.783  45.925  0.00  0.00    -0.309 OA
ATOM      2  O   UNL d   1       9.881  10.616  46.185  0.00  0.00    -0.287 OA
ATOM      3  C   UNL d   1       8.573  11.530  46.857  0.00  0.00     0.081 A 
ATOM      4  C   UNL d   1       7.887  12.253  46.770  0.00  0.00     0.095 A 
ATOM      5  C   UNL d   1       8.447  12.591  45.166  0.00  0.00     0.090 A 
ATOM      6  C   UNL d   1       9.195  11.338  46.098  0.00  0.00     0.190 A 
ATOM      7  C   UNL d   1       8.650  10.970  47.731  0.00  0.00     0.085 A 
ATOM      8  C   UNL d   1       9.132  11.869  45.253  0.00  0.00     0.094 A 
ATOM      9  C   UNL d   1       7.231  12.465  47.551  0.00  0.00     0.075 A 
ATOM     10  C   UNL d   1       7.291  11.916  48.435  0.00  0.00     0.071 A 
ATOM     11  C   UNL d   1       8.005  11.164  48.525  0.00  0.00     0.074 A 
ENDROOT
BRANCH   5  12
ATOM     12  C   UNL d   1       8.384  13.122  44.321  0.00  0.00    -0.002 A 
ATOM     13  C   UNL d   1       7.563  13.062  43.753  0.00  0.00     0.014 A 
ATOM     14  C   UNL d   1       7.500  13.592  42.908  0.00  0.00     0.001 A 
ATOM     15  C   UNL d   1       8.257  14.183  42.630  0.00  0.00     0.000 A 
ATOM     16  C   UNL d   1       9.078  14.243  43.199  0.00  0.00     0.001 A 
ATOM     17  C   UNL d   1       9.141  13.713  44.044  0.00  0.00     0.014 A 
ENDBRANCH   5  12
BRANCH   7  18
ATOM     18  O   UNL d   1       9.340  10.249  47.807  0.00  0.00    -0.360 OA
ATOM     19  H   UNL d   1       9.941  10.389  47.749  0.00  0.00     0.217 HD
ENDBRANCH   7  18
BRANCH  10  20
ATOM     20  O   UNL d   1       6.666  12.112  49.191  0.00  0.00    -0.361 OA
ATOM     21  H   UNL d   1       6.127  11.808  49.233  0.00  0.00     0.217 HD
ENDBRANCH  10  20
TORSDOF 3
ENDMDL
MODEL 2
REMARK VINA RESULT:    -7.418     19.414     21.011
REMARK INTER + INTRA:          -7.254
REMARK INTER:                  -8.295
REMARK INTRA:                   1.041
REMARK UNBOUND:                 1.031
REMARK  3 active torsions:
REMARK  status: ('A' for Active; 'I' for Inactive)
REMARK    1  A    between atoms: O_2  and  C_10 
REMARK    2  A    between atoms: O_4  and  C_13 
REMARK    3  A    between atoms: C_7  and  C_9 
ROOT
ATOM      1  O   UNL d   1      17.223  31.775  46.138  0.00  0.00    -0.309 OA
ATOM      2  O   UNL d   1      15.399  29.399  46.293  0.00  0.00    -0.287 OA
ATOM      3  C   UNL d   1      16.985  30.061  46.077  0.00  0.00     0.081 A 
ATOM      4  C   UNL d   1      17.593  30.853  46.026  0.00  0.00     0.095 A 
ATOM      5  C   UNL d   1      16.245  31.905  46.302  0.00  0.00     0.090 A 
ATOM      6  C   UNL d   1      16.007  30.191  46.242  0.00  0.00     0.190 A 
ATOM      7  C   UNL d   1      17.356  29.095  45.962  0.00  0.00     0.085 A 
ATOM      8  C   UNL d   1      15.637  31.113  46.354  0.00  0.00     0.094 A 
ATOM      9  C   UNL d   1      18.614  30.734  45.855  0.00  0.00     0.075 A 
ATOM     10  C   UNL d   1      19.006  29.776  45.737  0.00  0.00     0.071 A 
ATOM     11  C   UNL d   1      18.373  28.951  45.791  0.00  0.00     0.074 A 
ENDROOT
BRANCH   5  12
ATOM     12  C   UNL d   1      15.875  32.828  46.415  0.00  0.00    -0.002 A 
ATOM     13  C   UNL d   1      15.562  33.134  47.314  0.00  0.00     0.014 A 
ATOM     14  C   UNL d   1      15.192  34.057  47.426  0.00  0.00     0.001 A 
ATOM     15  C   UNL d   1      15.136  34.672  46.640  0.00  0.00     0.000 A 
ATOM     16  C   UNL d   1      15.449  34.365  45.741  0.00  0.00     0.001 A 
ATOM     17  C   UNL d   1      15.819  33.443  45.629  0.00  0.00     0.014 A 
ENDBRANCH   5  12
BRANCH   7  18
ATOM     18  O   UNL d   1      16.738  28.310  46.016  0.00  0.00    -0.360 OA
ATOM     19  H   UNL d   1      16.941  27.745  45.862  0.00  0.00     0.217 HD
ENDBRANCH   7  18
BRANCH  10  20
ATOM     20  O   UNL d   1      19.985  29.650  45.573  0.00  0.00    -0.361 OA
ATOM     21  H   UNL d   1      20.304  29.238  45.908  0.00  0.00     0.217 HD
ENDBRANCH  10  20
TORSDOF 3
ENDMDL
MODEL 3
REMARK VINA RESULT:    -7.408     20.472     22.114
REMARK INTER + INTRA:          -7.244
REMARK INTER:                  -8.252
REMARK INTRA:                   1.009
REMARK UNBOUND:                 1.031
REMARK  3 active torsions:
REMARK  status: ('A' for Active; 'I' for Inactive)
REMARK    1  A    between atoms: O_2  and  C_10 
REMARK    2  A    between atoms: O_4  and  C_13 
REMARK    3  A    between atoms: C_7  and  C_9 
ROOT
ATOM      1  O   UNL d   1      15.826  32.645  46.840  0.00  0.00    -0.309 OA
ATOM      2  O   UNL d   1      15.988  32.963  43.861  0.00  0.00    -0.287 OA
ATOM      3  C   UNL d   1      15.942  31.943  45.260  0.00  0.00     0.081 A 
ATOM      4  C   UNL d   1      15.888  31.837  46.253  0.00  0.00     0.095 A 
ATOM      5  C   UNL d   1      15.819  33.559  46.433  0.00  0.00     0.090 A 
ATOM      6  C   UNL d   1      15.934  32.857  44.854  0.00  0.00     0.190 A 
ATOM      7  C   UNL d   1      16.006  31.111  44.637  0.00  0.00     0.085 A 
ATOM      8  C   UNL d   1      15.873  33.665  45.440  0.00  0.00     0.094 A 
ATOM      9  C   UNL d   1      15.894  30.892  46.692  0.00  0.00     0.075 A 
ATOM     10  C   UNL d   1      15.958  30.046  46.087  0.00  0.00     0.071 A 
ATOM     11  C   UNL d   1      16.014  30.157  45.054  0.00  0.00     0.074 A 
ENDROOT
BRANCH   5  12
ATOM     12  C   UNL d   1      15.758  34.366  47.019  0.00  0.00    -0.002 A 
ATOM     13  C   UNL d   1      16.585  34.876  47.257  0.00  0.00     0.014 A 
ATOM     14  C   UNL d   1      16.524  35.683  47.843  0.00  0.00     0.001 A 
ATOM     15  C   UNL d   1      15.635  35.982  48.192  0.00  0.00     0.000 A 
ATOM     16  C   UNL d   1      14.808  35.472  47.955  0.00  0.00     0.001 A 
ATOM     17  C   UNL d   1      14.870  34.665  47.368  0.00  0.00     0.014 A 
ENDBRANCH   5  12
BRANCH   7  18
ATOM     18  O   UNL d   1      16.059  31.229  43.646  0.00  0.00    -0.360 OA
ATOM     19  H   UNL d   1      16.535  30.988  43.330  0.00  0.00     0.217 HD
ENDBRANCH   7  18
BRANCH  10  20
ATOM     20  O   UNL d   1      15.964  29.134  46.498  0.00  0.00    -0.361 OA
ATOM     21  H   UNL d   1      15.585  29.005  46.971  0.00  0.00     0.217 HD
ENDBRANCH  10  20
TORSDOF 3
ENDMDL
MODEL 4
REMARK VINA RESULT:    -7.375     20.974     22.516
REMARK INTER + INTRA:          -7.206
REMARK INTER:                  -8.213
REMARK INTRA:                   1.006
REMARK UNBOUND:                 1.031
REMARK  3 active torsions:
REMARK  status: ('A' for Active; 'I' for Inactive)
REMARK    1  A    between atoms: O_2  and  C_10 
REMARK    2  A    between atoms: O_4  and  C_13 
REMARK    3  A    between atoms: C_7  and  C_9 
ROOT
ATOM      1  O   UNL d   1      15.436  33.011  46.841  0.00  0.00    -0.309 OA
ATOM      2  O   UNL d   1      18.287  33.864  47.223  0.00  0.00    -0.287 OA
ATOM      3  C   UNL d   1      16.593  34.211  47.314  0.00  0.00     0.081 A 
ATOM      4  C   UNL d   1      15.642  33.927  47.187  0.00  0.00     0.095 A 
ATOM      5  C   UNL d   1      16.181  32.380  46.623  0.00  0.00     0.090 A 
ATOM      6  C   UNL d   1      17.337  33.580  47.096  0.00  0.00     0.190 A 
ATOM      7  C   UNL d   1      16.822  35.161  47.674  0.00  0.00     0.085 A 
ATOM      8  C   UNL d   1      17.131  32.664  46.750  0.00  0.00     0.094 A 
ATOM      9  C   UNL d   1      14.856  34.573  47.410  0.00  0.00     0.075 A 
ATOM     10  C   UNL d   1      15.063  35.528  47.771  0.00  0.00     0.071 A 
ATOM     11  C   UNL d   1      16.053  35.824  47.903  0.00  0.00     0.074 A 
ENDROOT
BRANCH   5  12
ATOM     12  C   UNL d   1      15.974  31.465  46.277  0.00  0.00    -0.002 A 
ATOM     13  C   UNL d   1      15.736  30.732  46.914  0.00  0.00     0.014 A 
ATOM     14  C   UNL d   1      15.530  29.816  46.568  0.00  0.00     0.001 A 
ATOM     15  C   UNL d   1      15.562  29.634  45.585  0.00  0.00     0.000 A 
ATOM     16  C   UNL d   1      15.801  30.367  44.949  0.00  0.00     0.001 A 
ATOM     17  C   UNL d   1      16.007  31.283  45.294  0.00  0.00     0.014 A 
ENDBRANCH   5  12
BRANCH   7  18
ATOM     18  O   UNL d   1      17.776  35.434  47.797  0.00  0.00    -0.360 OA
ATOM     19  H   UNL d   1      18.225  35.007  47.786  0.00  0.00     0.217 HD
ENDBRANCH   7  18
BRANCH  10  20
ATOM     20  O   UNL d   1      14.316  36.156  47.988  0.00  0.00    -0.361 OA
ATOM     21  H   UNL d   1      13.809  35.946  48.276  0.00  0.00     0.217 HD
ENDBRANCH  10  20
TORSDOF 3
ENDMDL
MODEL 5
REMARK VINA RESULT:    -6.937      1.486      2.020
REMARK INTER + INTRA:          -6.717
REMARK INTER:                  -8.019
REMARK INTRA:                   1.302
REMARK UNBOUND:                 1.031
REMARK  3 active torsions:
REMARK  status: ('A' for Active; 'I' for Inactive)
REMARK    1  A    between atoms: O_2  and  C_10 
REMARK    2  A    between atoms: O_4  and  C_13 
REMARK    3  A    between atoms: C_7  and  C_9 
ROOT
ATOM      1  O   UNL d   1       7.299  12.841  44.287  0.00  0.00    -0.309 OA
ATOM      2  O   UNL d   1       9.374  12.746  46.452  0.00  0.00    -0.287 OA
ATOM      3  C   UNL d   1       7.821  12.281  45.841  0.00  0.00     0.081 A 
ATOM      4  C   UNL d   1       7.130  12.313  45.119  0.00  0.00     0.095 A 
ATOM      5  C   UNL d   1       8.160  13.337  44.177  0.00  0.00     0.090 A 
ATOM      6  C   UNL d   1       8.682  12.778  45.730  0.00  0.00     0.190 A 
ATOM      7  C   UNL d   1       7.659  11.736  46.713  0.00  0.00     0.085 A 
ATOM      8  C   UNL d   1       8.852  13.306  44.898  0.00  0.00     0.094 A 
ATOM      9  C   UNL d   1       6.228  11.801  45.220  0.00  0.00     0.075 A 
ATOM     10  C   UNL d   1       6.044  11.249  46.084  0.00  0.00     0.071 A 
ATOM     11  C   UNL d   1       6.764  11.216  46.835  0.00  0.00     0.074 A 
ENDROOT
BRANCH   5  12
ATOM     12  C   UNL d   1       8.329  13.865  43.344  0.00  0.00    -0.002 A 
ATOM     13  C   UNL d   1       9.259  13.949  42.985  0.00  0.00     0.014 A 
ATOM     14  C   UNL d   1       9.428  14.477  42.153  0.00  0.00     0.001 A 
ATOM     15  C   UNL d   1       8.667  14.922  41.680  0.00  0.00     0.000 A 
ATOM     16  C   UNL d   1       7.738  14.838  42.039  0.00  0.00     0.001 A 
ATOM     17  C   UNL d   1       7.569  14.310  42.871  0.00  0.00     0.014 A 
ENDBRANCH   5  12
BRANCH   7  18
ATOM     18  O   UNL d   1       8.358  11.711  47.428  0.00  0.00    -0.360 OA
ATOM     19  H   UNL d   1       8.927  11.926  47.311  0.00  0.00     0.217 HD
ENDBRANCH   7  18
BRANCH  10  20
ATOM     20  O   UNL d   1       5.182  10.754  46.191  0.00  0.00    -0.361 OA
ATOM     21  H   UNL d   1       4.650  11.068  46.252  0.00  0.00     0.217 HD
ENDBRANCH  10  20
TORSDOF 3
ENDMDL
