MODEL 1
REMARK VINA RESULT:    -9.744      0.000      0.000
REMARK INTER + INTRA:          -4.655
REMARK INTER:                 -13.318
REMARK INTRA:                   8.663
REMARK UNBOUND:                 8.506
REMARK  9 active torsions:
REMARK  status: ('A' for Active; 'I' for Inactive)
REMARK    1  A    between atoms: O_3  and  C_17 
REMARK    2  A    between atoms: O_4  and  C_18 
REMARK    3  A    between atoms: O_5  and  C_19 
REMARK    4  A    between atoms: O_7  and  C_32 
REMARK    5  A    between atoms: O_9  and  C_36 
REMARK    6  A    between atoms: O_10  and  C_40 
REMARK    7  A    between atoms: C_11  and  C_13 
REMARK    8  A    between atoms: C_15  and  C_20 
REMARK    9  A    between atoms: C_22  and  C_29 
ROOT
ATOM      1  O   UNL d   1      17.655  48.065   9.171  0.00  0.00    -0.308 OA
ATOM      2  O   UNL d   1      18.129  47.906  12.199  0.00  0.00    -0.287 OA
ATOM      3  C   UNL d   1      16.095  47.287   9.417  0.00  0.00     0.045 A 
ATOM      4  C   UNL d   1      16.944  47.644   9.806  0.00  0.00     0.107 A 
ATOM      5  C   UNL d   1      17.103  47.594  10.793  0.00  0.00     0.082 A 
ATOM      6  C   UNL d   1      15.404  46.880  10.015  0.00  0.00     0.082 A 
ATOM      7  C   UNL d   1      16.411  47.187  11.390  0.00  0.00     0.085 A 
ATOM      8  C   UNL d   1      15.562  46.830  11.001  0.00  0.00     0.075 A 
ATOM      9  C   UNL d   1      18.542  48.438   9.569  0.00  0.00     0.090 A 
ATOM     10  C   UNL d   1      17.982  47.961  11.212  0.00  0.00     0.190 A 
ATOM     11  C   UNL d   1      18.707  48.386  10.597  0.00  0.00     0.094 A 
ENDROOT
BRANCH   3  12
ATOM     12  C   UNL d   1      15.937  47.337   8.431  0.00  0.00     0.014 A 
ATOM     13  C   UNL d   1      16.269  46.607   7.834  0.00  0.00     0.029 A 
ATOM     14  C   UNL d   1      16.111  46.657   6.848  0.00  0.00    -0.001 A 
ATOM     15  C   UNL d   1      15.621  47.437   6.459  0.00  0.00     0.017 A 
ATOM     16  C   UNL d   1      15.289  48.167   7.056  0.00  0.00     0.038 A 
ATOM     17  C   UNL d   1      15.447  48.117   8.042  0.00  0.00     0.076 A 
BRANCH  14  18
ATOM     18  C   UNL d   1      16.443  45.926   6.251  0.00  0.00     0.090 A 
ATOM     19  O   UNL d   1      15.829  45.187   5.976  0.00  0.00    -0.309 OA
ATOM     20  C   UNL d   1      16.161  44.457   5.379  0.00  0.00     0.095 A 
ATOM     21  C   UNL d   1      17.107  44.466   5.056  0.00  0.00     0.081 A 
ATOM     22  C   UNL d   1      15.508  43.692   5.102  0.00  0.00     0.075 A 
ATOM     23  C   UNL d   1      17.721  45.206   5.331  0.00  0.00     0.190 A 
ATOM     24  C   UNL d   1      17.467  43.713   4.434  0.00  0.00     0.085 A 
ATOM     25  O   UNL d   1      18.668  45.215   5.008  0.00  0.00    -0.287 OA
ATOM     26  C   UNL d   1      17.389  45.936   5.928  0.00  0.00     0.094 A 
ATOM     27  C   UNL d   1      16.833  42.938   4.143  0.00  0.00     0.074 A 
ATOM     28  C   UNL d   1      15.847  42.928   4.480  0.00  0.00     0.071 A 
BRANCH  24  29
ATOM     29  O   UNL d   1      18.415  43.732   4.117  0.00  0.00    -0.360 OA
ATOM     30  H   UNL d   1      18.618  43.301   3.720  0.00  0.00     0.217 HD
ENDBRANCH  24  29
BRANCH  28  31
ATOM     31  O   UNL d   1      15.229  42.190   4.207  0.00  0.00    -0.361 OA
ATOM     32  H   UNL d   1      15.101  42.099   3.608  0.00  0.00     0.217 HD
ENDBRANCH  28  31
ENDBRANCH  14  18
BRANCH  17  33
ATOM     33  O   UNL d   1      15.115  48.847   8.639  0.00  0.00    -0.360 OA
ATOM     34  H   UNL d   1      15.518  49.194   8.959  0.00  0.00     0.217 HD
ENDBRANCH  17  33
ENDBRANCH   3  12
BRANCH   6  35
ATOM     35  O   UNL d   1      14.555  46.523   9.625  0.00  0.00    -0.360 OA
ATOM     36  H   UNL d   1      14.237  46.083   9.925  0.00  0.00     0.217 HD
ENDBRANCH   6  35
BRANCH   9  37
ATOM     37  C   UNL d   1      19.231  48.845   8.969  0.00  0.00    -0.002 A 
ATOM     38  C   UNL d   1      19.322  48.525   8.025  0.00  0.00     0.017 A 
ATOM     39  C   UNL d   1      20.010  48.930   7.424  0.00  0.00     0.037 A 
ATOM     40  C   UNL d   1      20.607  49.656   7.766  0.00  0.00     0.065 A 
ATOM     41  C   UNL d   1      20.517  49.975   8.710  0.00  0.00     0.037 A 
ATOM     42  C   UNL d   1      19.828  49.569   9.310  0.00  0.00     0.017 A 
BRANCH  40  43
ATOM     43  O   UNL d   1      21.296  50.062   7.165  0.00  0.00    -0.361 OA
ATOM     44  H   UNL d   1      21.679  50.499   7.383  0.00  0.00     0.217 HD
ENDBRANCH  40  43
ENDBRANCH   9  37
BRANCH   7  45
ATOM     45  O   UNL d   1      16.569  47.137  12.376  0.00  0.00    -0.360 OA
ATOM     46  H   UNL d   1      16.089  47.083  12.764  0.00  0.00     0.217 HD
ENDBRANCH   7  45
TORSDOF 9
ENDMDL
MODEL 2
REMARK VINA RESULT:    -9.614     25.336     28.845
REMARK INTER + INTRA:          -4.480
REMARK INTER:                 -13.105
REMARK INTRA:                   8.625
REMARK UNBOUND:                 8.506
REMARK  9 active torsions:
REMARK  status: ('A' for Active; 'I' for Inactive)
REMARK    1  A    between atoms: O_3  and  C_17 
REMARK    2  A    between atoms: O_4  and  C_18 
REMARK    3  A    between atoms: O_5  and  C_19 
REMARK    4  A    between atoms: O_7  and  C_32 
REMARK    5  A    between atoms: O_9  and  C_36 
REMARK    6  A    between atoms: O_10  and  C_40 
REMARK    7  A    between atoms: C_11  and  C_13 
REMARK    8  A    between atoms: C_15  and  C_20 
REMARK    9  A    between atoms: C_22  and  C_29 
ROOT
ATOM      1  O   UNL d   1       3.300  41.623  33.046  0.00  0.00    -0.308 OA
ATOM      2  O   UNL d   1       4.745  39.480  34.701  0.00  0.00    -0.287 OA
ATOM      3  C   UNL d   1       3.523  42.746  34.383  0.00  0.00     0.045 A 
ATOM      4  C   UNL d   1       3.657  41.831  34.002  0.00  0.00     0.107 A 
ATOM      5  C   UNL d   1       4.127  41.130  34.539  0.00  0.00     0.082 A 
ATOM      6  C   UNL d   1       3.860  42.960  35.300  0.00  0.00     0.082 A 
ATOM      7  C   UNL d   1       4.464  41.344  35.455  0.00  0.00     0.085 A 
ATOM      8  C   UNL d   1       4.331  42.259  35.836  0.00  0.00     0.075 A 
ATOM      9  C   UNL d   1       3.435  40.672  32.643  0.00  0.00     0.090 A 
ATOM     10  C   UNL d   1       4.273  40.173  34.155  0.00  0.00     0.190 A 
ATOM     11  C   UNL d   1       3.925  39.941  33.202  0.00  0.00     0.094 A 
ENDROOT
BRANCH   3  12
ATOM     12  C   UNL d   1       3.053  43.447  33.846  0.00  0.00     0.014 A 
ATOM     13  C   UNL d   1       3.570  44.020  33.211  0.00  0.00     0.029 A 
ATOM     14  C   UNL d   1       3.099  44.721  32.674  0.00  0.00    -0.001 A 
ATOM     15  C   UNL d   1       2.112  44.848  32.774  0.00  0.00     0.017 A 
ATOM     16  C   UNL d   1       1.596  44.275  33.410  0.00  0.00     0.038 A 
ATOM     17  C   UNL d   1       2.066  43.574  33.946  0.00  0.00     0.076 A 
BRANCH  14  18
ATOM     18  C   UNL d   1       3.616  45.295  32.039  0.00  0.00     0.090 A 
ATOM     19  O   UNL d   1       3.879  46.223  32.303  0.00  0.00    -0.309 OA
ATOM     20  C   UNL d   1       4.395  46.796  31.667  0.00  0.00     0.095 A 
ATOM     21  C   UNL d   1       4.649  46.442  30.767  0.00  0.00     0.081 A 
ATOM     22  C   UNL d   1       4.662  47.761  31.957  0.00  0.00     0.075 A 
ATOM     23  C   UNL d   1       4.386  45.514  30.503  0.00  0.00     0.190 A 
ATOM     24  C   UNL d   1       5.187  47.027  30.094  0.00  0.00     0.085 A 
ATOM     25  O   UNL d   1       4.639  45.159  29.603  0.00  0.00    -0.287 OA
ATOM     26  C   UNL d   1       3.869  44.940  31.139  0.00  0.00     0.094 A 
ATOM     27  C   UNL d   1       5.465  47.995  30.362  0.00  0.00     0.074 A 
ATOM     28  C   UNL d   1       5.201  48.364  31.300  0.00  0.00     0.071 A 
BRANCH  24  29
ATOM     29  O   UNL d   1       5.435  46.663  29.197  0.00  0.00    -0.360 OA
ATOM     30  H   UNL d   1       5.784  46.151  29.155  0.00  0.00     0.217 HD
ENDBRANCH  24  29
BRANCH  28  31
ATOM     31  O   UNL d   1       5.462  49.292  31.568  0.00  0.00    -0.361 OA
ATOM     32  H   UNL d   1       5.369  49.484  32.150  0.00  0.00     0.217 HD
ENDBRANCH  28  31
ENDBRANCH  14  18
BRANCH  17  33
ATOM     33  O   UNL d   1       1.550  43.000  34.582  0.00  0.00    -0.360 OA
ATOM     34  H   UNL d   1       1.087  43.245  34.914  0.00  0.00     0.217 HD
ENDBRANCH  17  33
ENDBRANCH   3  12
BRANCH   6  35
ATOM     35  O   UNL d   1       3.727  43.875  35.680  0.00  0.00    -0.360 OA
ATOM     36  H   UNL d   1       3.235  44.212  35.511  0.00  0.00     0.217 HD
ENDBRANCH   6  35
BRANCH   9  37
ATOM     37  C   UNL d   1       3.096  40.462  31.725  0.00  0.00    -0.002 A 
ATOM     38  C   UNL d   1       3.144  41.154  31.005  0.00  0.00     0.017 A 
ATOM     39  C   UNL d   1       2.806  40.945  30.088  0.00  0.00     0.037 A 
ATOM     40  C   UNL d   1       2.420  40.043  29.891  0.00  0.00     0.065 A 
ATOM     41  C   UNL d   1       2.373  39.351  30.611  0.00  0.00     0.037 A 
ATOM     42  C   UNL d   1       2.711  39.561  31.529  0.00  0.00     0.017 A 
BRANCH  40  43
ATOM     43  O   UNL d   1       2.081  39.833  28.973  0.00  0.00    -0.361 OA
ATOM     44  H   UNL d   1       1.781  40.267  28.646  0.00  0.00     0.217 HD
ENDBRANCH  40  43
ENDBRANCH   9  37
BRANCH   7  45
ATOM     45  O   UNL d   1       4.934  40.643  35.992  0.00  0.00    -0.360 OA
ATOM     46  H   UNL d   1       5.550  40.666  36.060  0.00  0.00     0.217 HD
ENDBRANCH   7  45
TORSDOF 9
ENDMDL
MODEL 3
REMARK VINA RESULT:    -9.327     41.366     44.229
REMARK INTER + INTRA:          -4.093
REMARK INTER:                 -12.729
REMARK INTRA:                   8.637
REMARK UNBOUND:                 8.506
REMARK  9 active torsions:
REMARK  status: ('A' for Active; 'I' for Inactive)
REMARK    1  A    between atoms: O_3  and  C_17 
REMARK    2  A    between atoms: O_4  and  C_18 
REMARK    3  A    between atoms: O_5  and  C_19 
REMARK    4  A    between atoms: O_7  and  C_32 
REMARK    5  A    between atoms: O_9  and  C_36 
REMARK    6  A    between atoms: O_10  and  C_40 
REMARK    7  A    between atoms: C_11  and  C_13 
REMARK    8  A    between atoms: C_15  and  C_20 
REMARK    9  A    between atoms: C_22  and  C_29 
ROOT
ATOM      1  O   UNL d   1      26.359  27.074  48.027  0.00  0.00    -0.308 OA
ATOM      2  O   UNL d   1      24.151  26.419  50.054  0.00  0.00    -0.287 OA
ATOM      3  C   UNL d   1      26.164  25.459  47.355  0.00  0.00     0.045 A 
ATOM      4  C   UNL d   1      25.888  26.145  48.028  0.00  0.00     0.107 A 
ATOM      5  C   UNL d   1      25.169  25.935  48.690  0.00  0.00     0.082 A 
ATOM      6  C   UNL d   1      25.720  24.562  47.344  0.00  0.00     0.082 A 
ATOM      7  C   UNL d   1      24.725  25.039  48.680  0.00  0.00     0.085 A 
ATOM      8  C   UNL d   1      25.001  24.353  48.006  0.00  0.00     0.075 A 
ATOM      9  C   UNL d   1      26.078  27.794  48.725  0.00  0.00     0.090 A 
ATOM     10  C   UNL d   1      24.871  26.640  49.397  0.00  0.00     0.190 A 
ATOM     11  C   UNL d   1      25.328  27.575  49.415  0.00  0.00     0.094 A 
ENDROOT
BRANCH   3  12
ATOM     12  C   UNL d   1      26.883  25.668  46.693  0.00  0.00     0.014 A 
ATOM     13  C   UNL d   1      26.646  26.068  45.807  0.00  0.00     0.029 A 
ATOM     14  C   UNL d   1      27.365  26.278  45.145  0.00  0.00    -0.001 A 
ATOM     15  C   UNL d   1      28.321  26.088  45.368  0.00  0.00     0.017 A 
ATOM     16  C   UNL d   1      28.558  25.689  46.254  0.00  0.00     0.038 A 
ATOM     17  C   UNL d   1      27.839  25.479  46.916  0.00  0.00     0.076 A 
BRANCH  14  18
ATOM     18  C   UNL d   1      27.128  26.677  44.259  0.00  0.00     0.090 A 
ATOM     19  O   UNL d   1      26.476  26.214  43.660  0.00  0.00    -0.309 OA
ATOM     20  C   UNL d   1      26.239  26.613  42.774  0.00  0.00     0.095 A 
ATOM     21  C   UNL d   1      26.655  27.476  42.488  0.00  0.00     0.081 A 
ATOM     22  C   UNL d   1      25.557  26.118  42.161  0.00  0.00     0.075 A 
ATOM     23  C   UNL d   1      27.308  27.940  43.087  0.00  0.00     0.190 A 
ATOM     24  C   UNL d   1      26.418  27.905  41.569  0.00  0.00     0.085 A 
ATOM     25  O   UNL d   1      27.723  28.803  42.801  0.00  0.00    -0.287 OA
ATOM     26  C   UNL d   1      27.544  27.540  43.973  0.00  0.00     0.094 A 
ATOM     27  C   UNL d   1      25.739  27.427  40.939  0.00  0.00     0.074 A 
ATOM     28  C   UNL d   1      25.306  26.528  41.237  0.00  0.00     0.071 A 
BRANCH  24  29
ATOM     29  O   UNL d   1      26.840  28.768  41.292  0.00  0.00    -0.360 OA
ATOM     30  H   UNL d   1      26.483  29.249  41.128  0.00  0.00     0.217 HD
ENDBRANCH  24  29
BRANCH  28  31
ATOM     31  O   UNL d   1      24.653  26.062  40.640  0.00  0.00    -0.361 OA
ATOM     32  H   UNL d   1      24.785  25.499  40.416  0.00  0.00     0.217 HD
ENDBRANCH  28  31
ENDBRANCH  14  18
BRANCH  17  33
ATOM     33  O   UNL d   1      28.076  25.079  47.802  0.00  0.00    -0.360 OA
ATOM     34  H   UNL d   1      27.632  24.968  48.220  0.00  0.00     0.217 HD
ENDBRANCH  17  33
ENDBRANCH   3  12
BRANCH   6  35
ATOM     35  O   UNL d   1      25.996  23.876  46.671  0.00  0.00    -0.360 OA
ATOM     36  H   UNL d   1      25.570  23.610  46.308  0.00  0.00     0.217 HD
ENDBRANCH   6  35
BRANCH   9  37
ATOM     37  C   UNL d   1      26.524  28.689  48.732  0.00  0.00    -0.002 A 
ATOM     38  C   UNL d   1      27.481  28.767  49.013  0.00  0.00     0.017 A 
ATOM     39  C   UNL d   1      27.928  29.662  49.021  0.00  0.00     0.037 A 
ATOM     40  C   UNL d   1      27.418  30.477  48.748  0.00  0.00     0.065 A 
ATOM     41  C   UNL d   1      26.461  30.399  48.467  0.00  0.00     0.037 A 
ATOM     42  C   UNL d   1      26.014  29.504  48.459  0.00  0.00     0.017 A 
BRANCH  40  43
ATOM     43  O   UNL d   1      27.864  31.373  48.755  0.00  0.00    -0.361 OA
ATOM     44  H   UNL d   1      28.095  31.608  48.229  0.00  0.00     0.217 HD
ENDBRANCH  40  43
ENDBRANCH   9  37
BRANCH   7  45
ATOM     45  O   UNL d   1      24.006  24.829  49.342  0.00  0.00    -0.360 OA
ATOM     46  H   UNL d   1      23.437  24.679  49.145  0.00  0.00     0.217 HD
ENDBRANCH   7  45
TORSDOF 9
ENDMDL
MODEL 4
REMARK VINA RESULT:    -9.323     42.296     45.122
REMARK INTER + INTRA:          -4.087
REMARK INTER:                 -12.898
REMARK INTRA:                   8.811
REMARK UNBOUND:                 8.506
REMARK  9 active torsions:
REMARK  status: ('A' for Active; 'I' for Inactive)
REMARK    1  A    between atoms: O_3  and  C_17 
REMARK    2  A    between atoms: O_4  and  C_18 
REMARK    3  A    between atoms: O_5  and  C_19 
REMARK    4  A    between atoms: O_7  and  C_32 
REMARK    5  A    between atoms: O_9  and  C_36 
REMARK    6  A    between atoms: O_10  and  C_40 
REMARK    7  A    between atoms: C_11  and  C_13 
REMARK    8  A    between atoms: C_15  and  C_20 
REMARK    9  A    between atoms: C_22  and  C_29 
ROOT
ATOM      1  O   UNL d   1      27.957  27.511  48.558  0.00  0.00    -0.308 OA
ATOM      2  O   UNL d   1      28.985  30.293  49.348  0.00  0.00    -0.287 OA
ATOM      3  C   UNL d   1      26.407  28.244  48.159  0.00  0.00     0.045 A 
ATOM      4  C   UNL d   1      27.344  28.352  48.489  0.00  0.00     0.107 A 
ATOM      5  C   UNL d   1      27.683  29.256  48.748  0.00  0.00     0.082 A 
ATOM      6  C   UNL d   1      25.807  29.041  48.088  0.00  0.00     0.082 A 
ATOM      7  C   UNL d   1      27.084  30.054  48.676  0.00  0.00     0.085 A 
ATOM      8  C   UNL d   1      26.146  29.946  48.346  0.00  0.00     0.075 A 
ATOM      9  C   UNL d   1      28.935  27.616  48.901  0.00  0.00     0.090 A 
ATOM     10  C   UNL d   1      28.657  29.383  49.093  0.00  0.00     0.190 A 
ATOM     11  C   UNL d   1      29.288  28.558  49.170  0.00  0.00     0.094 A 
ENDROOT
BRANCH   3  12
ATOM     12  C   UNL d   1      26.068  27.339  47.901  0.00  0.00     0.014 A 
ATOM     13  C   UNL d   1      26.148  27.027  46.955  0.00  0.00     0.029 A 
ATOM     14  C   UNL d   1      25.809  26.122  46.696  0.00  0.00    -0.001 A 
ATOM     15  C   UNL d   1      25.391  25.530  47.385  0.00  0.00     0.017 A 
ATOM     16  C   UNL d   1      25.311  25.842  48.331  0.00  0.00     0.038 A 
ATOM     17  C   UNL d   1      25.649  26.747  48.589  0.00  0.00     0.076 A 
BRANCH  14  18
ATOM     18  C   UNL d   1      25.889  25.810  45.750  0.00  0.00     0.090 A 
ATOM     19  O   UNL d   1      25.270  26.170  45.051  0.00  0.00    -0.309 OA
ATOM     20  C   UNL d   1      25.350  25.857  44.104  0.00  0.00     0.095 A 
ATOM     21  C   UNL d   1      26.048  25.186  43.856  0.00  0.00     0.081 A 
ATOM     22  C   UNL d   1      24.698  26.241  43.387  0.00  0.00     0.075 A 
ATOM     23  C   UNL d   1      26.667  24.826  44.555  0.00  0.00     0.190 A 
ATOM     24  C   UNL d   1      26.143  24.851  42.874  0.00  0.00     0.085 A 
ATOM     25  O   UNL d   1      27.365  24.155  44.307  0.00  0.00    -0.287 OA
ATOM     26  C   UNL d   1      26.587  25.138  45.502  0.00  0.00     0.094 A 
ATOM     27  C   UNL d   1      25.503  25.221  42.141  0.00  0.00     0.074 A 
ATOM     28  C   UNL d   1      24.775  25.921  42.399  0.00  0.00     0.071 A 
BRANCH  24  29
ATOM     29  O   UNL d   1      26.845  24.179  42.638  0.00  0.00    -0.360 OA
ATOM     30  H   UNL d   1      26.819  23.606  42.875  0.00  0.00     0.217 HD
ENDBRANCH  24  29
BRANCH  28  31
ATOM     31  O   UNL d   1      24.155  26.282  41.703  0.00  0.00    -0.361 OA
ATOM     32  H   UNL d   1      24.350  26.348  41.118  0.00  0.00     0.217 HD
ENDBRANCH  28  31
ENDBRANCH  14  18
BRANCH  17  33
ATOM     33  O   UNL d   1      25.570  27.059  49.536  0.00  0.00    -0.360 OA
ATOM     34  H   UNL d   1      25.010  27.166  49.781  0.00  0.00     0.217 HD
ENDBRANCH  17  33
ENDBRANCH   3  12
BRANCH   6  35
ATOM     35  O   UNL d   1      24.869  28.934  47.758  0.00  0.00    -0.360 OA
ATOM     36  H   UNL d   1      24.586  29.405  47.471  0.00  0.00     0.217 HD
ENDBRANCH   6  35
BRANCH   9  37
ATOM     37  C   UNL d   1      29.531  26.815  48.971  0.00  0.00    -0.002 A 
ATOM     38  C   UNL d   1      29.256  25.950  48.551  0.00  0.00     0.017 A 
ATOM     39  C   UNL d   1      29.852  25.150  48.621  0.00  0.00     0.037 A 
ATOM     40  C   UNL d   1      30.721  25.215  49.110  0.00  0.00     0.065 A 
ATOM     41  C   UNL d   1      30.996  26.080  49.529  0.00  0.00     0.037 A 
ATOM     42  C   UNL d   1      30.400  26.881  49.459  0.00  0.00     0.017 A 
BRANCH  40  43
ATOM     43  O   UNL d   1      31.318  24.415  49.180  0.00  0.00    -0.361 OA
ATOM     44  H   UNL d   1      31.865  24.460  49.469  0.00  0.00     0.217 HD
ENDBRANCH  40  43
ENDBRANCH   9  37
BRANCH   7  45
ATOM     45  O   UNL d   1      27.422  30.958  48.934  0.00  0.00    -0.360 OA
ATOM     46  H   UNL d   1      27.124  31.467  48.743  0.00  0.00     0.217 HD
ENDBRANCH   7  45
TORSDOF 9
ENDMDL
MODEL 5
REMARK VINA RESULT:    -9.097     32.834     35.317
REMARK INTER + INTRA:          -3.782
REMARK INTER:                 -12.316
REMARK INTRA:                   8.534
REMARK UNBOUND:                 8.506
REMARK  9 active torsions:
REMARK  status: ('A' for Active; 'I' for Inactive)
REMARK    1  A    between atoms: O_3  and  C_17 
REMARK    2  A    between atoms: O_4  and  C_18 
REMARK    3  A    between atoms: O_5  and  C_19 
REMARK    4  A    between atoms: O_7  and  C_32 
REMARK    5  A    between atoms: O_9  and  C_36 
REMARK    6  A    between atoms: O_10  and  C_40 
REMARK    7  A    between atoms: C_11  and  C_13 
REMARK    8  A    between atoms: C_15  and  C_20 
REMARK    9  A    between atoms: C_22  and  C_29 
ROOT
ATOM      1  O   UNL d   1      28.318  30.982  38.823  0.00  0.00    -0.308 OA
ATOM      2  O   UNL d   1      29.218  29.744  41.483  0.00  0.00    -0.287 OA
ATOM      3  C   UNL d   1      26.975  29.844  38.796  0.00  0.00     0.045 A 
ATOM      4  C   UNL d   1      27.789  30.197  39.258  0.00  0.00     0.107 A 
ATOM      5  C   UNL d   1      28.085  29.796  40.125  0.00  0.00     0.082 A 
ATOM      6  C   UNL d   1      26.457  29.091  39.202  0.00  0.00     0.082 A 
ATOM      7  C   UNL d   1      27.567  29.043  40.530  0.00  0.00     0.085 A 
ATOM      8  C   UNL d   1      26.753  28.690  40.069  0.00  0.00     0.075 A 
ATOM      9  C   UNL d   1      29.167  31.354  39.298  0.00  0.00     0.090 A 
ATOM     10  C   UNL d   1      28.931  30.153  40.617  0.00  0.00     0.190 A 
ATOM     11  C   UNL d   1      29.476  30.937  40.201  0.00  0.00     0.094 A 
ENDROOT
BRANCH   3  12
ATOM     12  C   UNL d   1      26.679  30.245  37.930  0.00  0.00     0.014 A 
ATOM     13  C   UNL d   1      26.990  29.852  37.065  0.00  0.00     0.029 A 
ATOM     14  C   UNL d   1      26.694  30.253  36.198  0.00  0.00    -0.001 A 
ATOM     15  C   UNL d   1      26.086  31.047  36.196  0.00  0.00     0.017 A 
ATOM     16  C   UNL d   1      25.775  31.440  37.061  0.00  0.00     0.038 A 
ATOM     17  C   UNL d   1      26.071  31.039  37.928  0.00  0.00     0.076 A 
BRANCH  14  18
ATOM     18  C   UNL d   1      27.005  29.859  35.333  0.00  0.00     0.090 A 
ATOM     19  O   UNL d   1      26.483  29.123  34.902  0.00  0.00    -0.309 OA
ATOM     20  C   UNL d   1      26.795  28.730  34.037  0.00  0.00     0.095 A 
ATOM     21  C   UNL d   1      27.627  29.073  33.602  0.00  0.00     0.081 A 
ATOM     22  C   UNL d   1      26.240  27.963  33.600  0.00  0.00     0.075 A 
ATOM     23  C   UNL d   1      28.149  29.809  34.033  0.00  0.00     0.190 A 
ATOM     24  C   UNL d   1      27.964  28.673  32.701  0.00  0.00     0.085 A 
ATOM     25  O   UNL d   1      28.982  30.152  33.599  0.00  0.00    -0.287 OA
ATOM     26  C   UNL d   1      27.838  30.202  34.898  0.00  0.00     0.094 A 
ATOM     27  C   UNL d   1      27.426  27.905  32.246  0.00  0.00     0.074 A 
ATOM     28  C   UNL d   1      26.558  27.548  32.698  0.00  0.00     0.071 A 
BRANCH  24  29
ATOM     29  O   UNL d   1      28.798  29.024  32.276  0.00  0.00    -0.360 OA
ATOM     30  H   UNL d   1      29.001  29.594  32.414  0.00  0.00     0.217 HD
ENDBRANCH  24  29
BRANCH  28  31
ATOM     31  O   UNL d   1      26.034  26.812  32.271  0.00  0.00    -0.361 OA
ATOM     32  H   UNL d   1      26.309  26.429  31.868  0.00  0.00     0.217 HD
ENDBRANCH  28  31
ENDBRANCH  14  18
BRANCH  17  33
ATOM     33  O   UNL d   1      25.760  31.433  38.793  0.00  0.00    -0.360 OA
ATOM     34  H   UNL d   1      26.137  31.437  39.285  0.00  0.00     0.217 HD
ENDBRANCH  17  33
ENDBRANCH   3  12
BRANCH   6  35
ATOM     35  O   UNL d   1      25.643  28.739  38.740  0.00  0.00    -0.360 OA
ATOM     36  H   UNL d   1      25.486  28.955  38.181  0.00  0.00     0.217 HD
ENDBRANCH   6  35
BRANCH   9  37
ATOM     37  C   UNL d   1      29.682  32.108  38.889  0.00  0.00    -0.002 A 
ATOM     38  C   UNL d   1      29.522  33.046  39.196  0.00  0.00     0.017 A 
ATOM     39  C   UNL d   1      30.037  33.800  38.788  0.00  0.00     0.037 A 
ATOM     40  C   UNL d   1      30.711  33.615  38.072  0.00  0.00     0.065 A 
ATOM     41  C   UNL d   1      30.871  32.677  37.766  0.00  0.00     0.037 A 
ATOM     42  C   UNL d   1      30.356  31.923  38.174  0.00  0.00     0.017 A 
BRANCH  40  43
ATOM     43  O   UNL d   1      31.226  34.369  37.663  0.00  0.00    -0.361 OA
ATOM     44  H   UNL d   1      30.951  34.749  37.257  0.00  0.00     0.217 HD
ENDBRANCH  40  43
ENDBRANCH   9  37
BRANCH   7  45
ATOM     45  O   UNL d   1      27.864  28.642  41.397  0.00  0.00    -0.360 OA
ATOM     46  H   UNL d   1      28.433  28.402  41.449  0.00  0.00     0.217 HD
ENDBRANCH   7  45
TORSDOF 9
ENDMDL
