MODEL 1
REMARK VINA RESULT:    -6.211      0.000      0.000
REMARK INTER + INTRA:          -7.826
REMARK INTER:                  -8.465
REMARK INTRA:                   0.639
REMARK UNBOUND:                 0.564
REMARK  6 active torsions:
REMARK  status: ('A' for Active; 'I' for Inactive)
REMARK    1  A    between atoms: C_3  and  C_4 
REMARK    2  A    between atoms: C_3  and  C_5 
REMARK    3  A    between atoms: C_6  and  C_4 
REMARK    4  A    between atoms: C_5  and  C_7 
REMARK    5  A    between atoms: C_7  and  C_8 
REMARK    6  A    between atoms: C_8  and  C_10 
ROOT
ATOM      1  O   UNL d   1      -2.937  -0.900 -13.396  0.00  0.00    -0.312 OA
ATOM      2  O   UNL d   1      -4.264   0.204 -13.538  0.00  0.00    -0.260 OA
ATOM      3  C   UNL d   1      -2.545  -1.739 -13.018  0.00  0.00     0.135 A 
ATOM      4  C   UNL d   1      -3.088  -2.312 -12.404  0.00  0.00     0.060 A 
ATOM      5  C   UNL d   1      -4.023  -2.047 -12.168  0.00  0.00    -0.018 A 
ATOM      6  C   UNL d   1      -3.872  -0.635 -13.160  0.00  0.00     0.282 A 
ATOM      7  C   UNL d   1      -4.414  -1.208 -12.546  0.00  0.00     0.078 A 
ENDROOT
BRANCH   3   8
ATOM      8  C   UNL d   1      -1.610  -2.005 -13.253  0.00  0.00     0.033 C 
BRANCH   8   9
ATOM      9  C   UNL d   1      -1.153  -1.582 -14.036  0.00  0.00     0.002 C 
BRANCH   9  10
ATOM     10  C   UNL d   1      -0.283  -1.950 -14.365  0.00  0.00     0.000 C 
BRANCH  10  11
ATOM     11  C   UNL d   1       0.481  -1.333 -14.556  0.00  0.00     0.000 C 
BRANCH  11  12
ATOM     12  C   UNL d   1       1.232  -1.635 -15.144  0.00  0.00    -0.000 C 
BRANCH  12  13
ATOM     13  C   UNL d   1       2.135  -1.216 -15.054  0.00  0.00    -0.005 C 
ATOM     14  C   UNL d   1       2.683  -1.028 -15.869  0.00  0.00     0.005 C 
ENDBRANCH  12  13
ENDBRANCH  11  12
ENDBRANCH  10  11
ENDBRANCH   9  10
ENDBRANCH   8   9
ENDBRANCH   3   8
TORSDOF 6
ENDMDL
MODEL 2
REMARK VINA RESULT:    -6.012      2.530      4.377
REMARK INTER + INTRA:          -7.557
REMARK INTER:                  -8.190
REMARK INTRA:                   0.633
REMARK UNBOUND:                 0.564
REMARK  6 active torsions:
REMARK  status: ('A' for Active; 'I' for Inactive)
REMARK    1  A    between atoms: C_3  and  C_4 
REMARK    2  A    between atoms: C_3  and  C_5 
REMARK    3  A    between atoms: C_6  and  C_4 
REMARK    4  A    between atoms: C_5  and  C_7 
REMARK    5  A    between atoms: C_7  and  C_8 
REMARK    6  A    between atoms: C_8  and  C_10 
ROOT
ATOM      1  O   UNL d   1      -3.481  -1.203 -13.209  0.00  0.00    -0.312 OA
ATOM      2  O   UNL d   1      -4.321   0.283 -13.507  0.00  0.00    -0.260 OA
ATOM      3  C   UNL d   1      -2.648  -1.753 -13.267  0.00  0.00     0.135 A 
ATOM      4  C   UNL d   1      -1.822  -1.369 -13.680  0.00  0.00     0.060 A 
ATOM      5  C   UNL d   1      -1.829  -0.434 -14.035  0.00  0.00    -0.018 A 
ATOM      6  C   UNL d   1      -3.488  -0.268 -13.565  0.00  0.00     0.282 A 
ATOM      7  C   UNL d   1      -2.662   0.116 -13.978  0.00  0.00     0.078 A 
ENDROOT
BRANCH   3   8
ATOM      8  C   UNL d   1      -2.641  -2.688 -12.912  0.00  0.00     0.033 C 
BRANCH   8   9
ATOM      9  C   UNL d   1      -2.726  -3.462 -13.539  0.00  0.00     0.002 C 
BRANCH   9  10
ATOM     10  C   UNL d   1      -3.121  -4.323 -13.220  0.00  0.00     0.000 C 
BRANCH  10  11
ATOM     11  C   UNL d   1      -3.109  -5.129 -13.813  0.00  0.00     0.000 C 
BRANCH  11  12
ATOM     12  C   UNL d   1      -3.960  -5.615 -14.012  0.00  0.00    -0.000 C 
BRANCH  12  13
ATOM     13  C   UNL d   1      -3.951  -6.408 -14.622  0.00  0.00    -0.005 C 
ATOM     14  C   UNL d   1      -4.732  -6.589 -15.219  0.00  0.00     0.005 C 
ENDBRANCH  12  13
ENDBRANCH  11  12
ENDBRANCH  10  11
ENDBRANCH   9  10
ENDBRANCH   8   9
ENDBRANCH   3   8
TORSDOF 6
ENDMDL
MODEL 3
REMARK VINA RESULT:    -5.635      2.355      4.186
REMARK INTER + INTRA:          -7.048
REMARK INTER:                  -7.648
REMARK INTRA:                   0.600
REMARK UNBOUND:                 0.564
REMARK  6 active torsions:
REMARK  status: ('A' for Active; 'I' for Inactive)
REMARK    1  A    between atoms: C_3  and  C_4 
REMARK    2  A    between atoms: C_3  and  C_5 
REMARK    3  A    between atoms: C_6  and  C_4 
REMARK    4  A    between atoms: C_5  and  C_7 
REMARK    5  A    between atoms: C_7  and  C_8 
REMARK    6  A    between atoms: C_8  and  C_10 
ROOT
ATOM      1  O   UNL d   1      -3.070  -1.418 -13.037  0.00  0.00    -0.312 OA
ATOM      2  O   UNL d   1      -4.427  -0.341 -13.014  0.00  0.00    -0.260 OA
ATOM      3  C   UNL d   1      -2.143  -1.636 -13.342  0.00  0.00     0.135 A 
ATOM      4  C   UNL d   1      -1.646  -0.996 -13.928  0.00  0.00     0.060 A 
ATOM      5  C   UNL d   1      -2.076  -0.138 -14.210  0.00  0.00    -0.018 A 
ATOM      6  C   UNL d   1      -3.500  -0.560 -13.319  0.00  0.00     0.282 A 
ATOM      7  C   UNL d   1      -3.003   0.080 -13.905  0.00  0.00     0.078 A 
ENDROOT
BRANCH   3   8
ATOM      8  C   UNL d   1      -1.713  -2.494 -13.061  0.00  0.00     0.033 C 
BRANCH   8   9
ATOM      9  C   UNL d   1      -2.007  -2.948 -12.220  0.00  0.00     0.002 C 
BRANCH   9  10
ATOM     10  C   UNL d   1      -1.519  -3.757 -11.891  0.00  0.00     0.000 C 
BRANCH  10  11
ATOM     11  C   UNL d   1      -1.848  -4.245 -11.083  0.00  0.00     0.000 C 
BRANCH  11  12
ATOM     12  C   UNL d   1      -1.197  -4.689 -10.468  0.00  0.00    -0.000 C 
BRANCH  12  13
ATOM     13  C   UNL d   1      -1.517  -5.364  -9.804  0.00  0.00    -0.005 C 
ATOM     14  C   UNL d   1      -1.141  -5.372  -8.877  0.00  0.00     0.005 C 
ENDBRANCH  12  13
ENDBRANCH  11  12
ENDBRANCH  10  11
ENDBRANCH   9  10
ENDBRANCH   8   9
ENDBRANCH   3   8
TORSDOF 6
ENDMDL
MODEL 4
REMARK VINA RESULT:    -5.311      2.215      5.529
REMARK INTER + INTRA:          -6.610
REMARK INTER:                  -7.196
REMARK INTRA:                   0.586
REMARK UNBOUND:                 0.564
REMARK  6 active torsions:
REMARK  status: ('A' for Active; 'I' for Inactive)
REMARK    1  A    between atoms: C_3  and  C_4 
REMARK    2  A    between atoms: C_3  and  C_5 
REMARK    3  A    between atoms: C_6  and  C_4 
REMARK    4  A    between atoms: C_5  and  C_7 
REMARK    5  A    between atoms: C_7  and  C_8 
REMARK    6  A    between atoms: C_8  and  C_10 
ROOT
ATOM      1  O   UNL d   1       1.767  -1.004 -14.640  0.00  0.00    -0.312 OA
ATOM      2  O   UNL d   1       3.191  -0.018 -14.601  0.00  0.00    -0.260 OA
ATOM      3  C   UNL d   1       1.154  -1.621 -15.134  0.00  0.00     0.135 A 
ATOM      4  C   UNL d   1       1.351  -1.867 -16.083  0.00  0.00     0.060 A 
ATOM      5  C   UNL d   1       2.161  -1.497 -16.538  0.00  0.00    -0.018 A 
ATOM      6  C   UNL d   1       2.577  -0.634 -15.095  0.00  0.00     0.282 A 
ATOM      7  C   UNL d   1       2.774  -0.881 -16.044  0.00  0.00     0.078 A 
ENDROOT
BRANCH   3   8
ATOM      8  C   UNL d   1       0.344  -1.990 -14.679  0.00  0.00     0.033 C 
BRANCH   8   9
ATOM      9  C   UNL d   1      -0.412  -1.384 -14.433  0.00  0.00     0.002 C 
BRANCH   9  10
ATOM     10  C   UNL d   1      -1.055  -1.653 -13.716  0.00  0.00     0.000 C 
BRANCH  10  11
ATOM     11  C   UNL d   1      -1.956  -1.221 -13.666  0.00  0.00     0.000 C 
BRANCH  11  12
ATOM     12  C   UNL d   1      -2.645  -1.576 -13.034  0.00  0.00    -0.000 C 
BRANCH  12  13
ATOM     13  C   UNL d   1      -3.617  -1.485 -13.252  0.00  0.00    -0.005 C 
ATOM     14  C   UNL d   1      -4.238  -1.053 -12.598  0.00  0.00     0.005 C 
ENDBRANCH  12  13
ENDBRANCH  11  12
ENDBRANCH  10  11
ENDBRANCH   9  10
ENDBRANCH   8   9
ENDBRANCH   3   8
TORSDOF 6
ENDMDL
MODEL 5
REMARK VINA RESULT:    -5.234     21.035     21.353
REMARK INTER + INTRA:          -6.506
REMARK INTER:                  -7.133
REMARK INTRA:                   0.627
REMARK UNBOUND:                 0.564
REMARK  6 active torsions:
REMARK  status: ('A' for Active; 'I' for Inactive)
REMARK    1  A    between atoms: C_3  and  C_4 
REMARK    2  A    between atoms: C_3  and  C_5 
REMARK    3  A    between atoms: C_6  and  C_4 
REMARK    4  A    between atoms: C_5  and  C_7 
REMARK    5  A    between atoms: C_7  and  C_8 
REMARK    6  A    between atoms: C_8  and  C_10 
ROOT
ATOM      1  O   UNL d   1       5.938  14.644  -0.860  0.00  0.00    -0.312 OA
ATOM      2  O   UNL d   1       7.046  15.811  -1.502  0.00  0.00    -0.260 OA
ATOM      3  C   UNL d   1       5.075  14.430  -0.402  0.00  0.00     0.135 A 
ATOM      4  C   UNL d   1       4.458  15.167  -0.128  0.00  0.00     0.060 A 
ATOM      5  C   UNL d   1       4.703  16.119  -0.312  0.00  0.00    -0.018 A 
ATOM      6  C   UNL d   1       6.183  15.596  -1.044  0.00  0.00     0.282 A 
ATOM      7  C   UNL d   1       5.566  16.333  -0.770  0.00  0.00     0.078 A 
ENDROOT
BRANCH   3   8
ATOM      8  C   UNL d   1       4.830  13.478  -0.218  0.00  0.00     0.033 C 
BRANCH   8   9
ATOM      9  C   UNL d   1       5.542  12.777  -0.178  0.00  0.00     0.002 C 
BRANCH   9  10
ATOM     10  C   UNL d   1       5.295  11.822  -0.013  0.00  0.00     0.000 C 
BRANCH  10  11
ATOM     11  C   UNL d   1       5.955  11.095  -0.204  0.00  0.00     0.000 C 
BRANCH  11  12
ATOM     12  C   UNL d   1       5.760  10.156   0.081  0.00  0.00    -0.000 C 
BRANCH  12  13
ATOM     13  C   UNL d   1       6.336   9.406  -0.243  0.00  0.00    -0.005 C 
ATOM     14  C   UNL d   1       5.943   8.497  -0.381  0.00  0.00     0.005 C 
ENDBRANCH  12  13
ENDBRANCH  11  12
ENDBRANCH  10  11
ENDBRANCH   9  10
ENDBRANCH   8   9
ENDBRANCH   3   8
TORSDOF 6
ENDMDL
