MODEL 1
REMARK VINA RESULT:    -6.388      0.000      0.000
REMARK INTER + INTRA:          -7.286
REMARK INTER:                  -8.021
REMARK INTRA:                   0.735
REMARK UNBOUND:                 0.595
REMARK  4 active torsions:
REMARK  status: ('A' for Active; 'I' for Inactive)
REMARK    1  A    between atoms: C_3  and  C_4 
REMARK    2  A    between atoms: C_3  and  C_5 
REMARK    3  A    between atoms: C_5  and  C_6 
REMARK    4  A    between atoms: C_6  and  C_8 
ROOT
ATOM      1  O   UNL d   1      -2.662  -1.499 -13.127  0.00  0.00    -0.312 OA
ATOM      2  O   UNL d   1      -3.696  -2.411 -12.079  0.00  0.00    -0.260 OA
ATOM      3  C   UNL d   1      -2.505  -0.700 -13.708  0.00  0.00     0.135 A 
ATOM      4  C   UNL d   1      -3.225  -0.015 -13.822  0.00  0.00     0.060 A 
ATOM      5  C   UNL d   1      -4.102  -0.129 -13.356  0.00  0.00    -0.018 A 
ATOM      6  C   UNL d   1      -3.539  -1.612 -12.660  0.00  0.00     0.282 A 
ATOM      7  C   UNL d   1      -4.259  -0.927 -12.775  0.00  0.00     0.078 A 
ENDROOT
BRANCH   3   8
ATOM      8  C   UNL d   1      -1.628  -0.586 -14.175  0.00  0.00     0.033 C 
BRANCH   8   9
ATOM      9  C   UNL d   1      -0.898  -1.255 -14.038  0.00  0.00     0.002 C 
BRANCH   9  10
ATOM     10  C   UNL d   1      -0.005  -1.117 -14.466  0.00  0.00    -0.000 C 
BRANCH  10  11
ATOM     11  C   UNL d   1       0.507  -1.900 -14.820  0.00  0.00    -0.005 C 
ATOM     12  C   UNL d   1       1.440  -1.776 -15.156  0.00  0.00     0.005 C 
ENDBRANCH  10  11
ENDBRANCH   9  10
ENDBRANCH   8   9
ENDBRANCH   3   8
TORSDOF 4
ENDMDL
MODEL 2
REMARK VINA RESULT:    -6.002      2.173      3.382
REMARK INTER + INTRA:          -6.810
REMARK INTER:                  -7.420
REMARK INTRA:                   0.610
REMARK UNBOUND:                 0.595
REMARK  4 active torsions:
REMARK  status: ('A' for Active; 'I' for Inactive)
REMARK    1  A    between atoms: C_3  and  C_4 
REMARK    2  A    between atoms: C_3  and  C_5 
REMARK    3  A    between atoms: C_5  and  C_6 
REMARK    4  A    between atoms: C_6  and  C_8 
ROOT
ATOM      1  O   UNL d   1      -3.512  -1.196 -13.174  0.00  0.00    -0.312 OA
ATOM      2  O   UNL d   1      -4.345   0.293 -13.475  0.00  0.00    -0.260 OA
ATOM      3  C   UNL d   1      -2.686  -1.755 -13.243  0.00  0.00     0.135 A 
ATOM      4  C   UNL d   1      -1.866  -1.384 -13.679  0.00  0.00     0.060 A 
ATOM      5  C   UNL d   1      -1.872  -0.455 -14.047  0.00  0.00    -0.018 A 
ATOM      6  C   UNL d   1      -3.518  -0.266 -13.543  0.00  0.00     0.282 A 
ATOM      7  C   UNL d   1      -2.698   0.105 -13.979  0.00  0.00     0.078 A 
ENDROOT
BRANCH   3   8
ATOM      8  C   UNL d   1      -2.680  -2.685 -12.874  0.00  0.00     0.033 C 
BRANCH   8   9
ATOM      9  C   UNL d   1      -2.806  -3.465 -13.486  0.00  0.00     0.002 C 
BRANCH   9  10
ATOM     10  C   UNL d   1      -3.126  -4.340 -13.121  0.00  0.00    -0.000 C 
BRANCH  10  11
ATOM     11  C   UNL d   1      -3.054  -5.169 -13.675  0.00  0.00    -0.005 C 
ATOM     12  C   UNL d   1      -3.833  -5.791 -13.749  0.00  0.00     0.005 C 
ENDBRANCH  10  11
ENDBRANCH   9  10
ENDBRANCH   8   9
ENDBRANCH   3   8
TORSDOF 4
ENDMDL
MODEL 3
REMARK VINA RESULT:    -5.906      2.077      3.422
REMARK INTER + INTRA:          -6.692
REMARK INTER:                  -7.318
REMARK INTRA:                   0.626
REMARK UNBOUND:                 0.595
REMARK  4 active torsions:
REMARK  status: ('A' for Active; 'I' for Inactive)
REMARK    1  A    between atoms: C_3  and  C_4 
REMARK    2  A    between atoms: C_3  and  C_5 
REMARK    3  A    between atoms: C_5  and  C_6 
REMARK    4  A    between atoms: C_6  and  C_8 
ROOT
ATOM      1  O   UNL d   1      -2.190  -1.442 -13.455  0.00  0.00    -0.312 OA
ATOM      2  O   UNL d   1      -1.255  -0.283 -14.340  0.00  0.00    -0.260 OA
ATOM      3  C   UNL d   1      -3.050  -1.711 -13.021  0.00  0.00     0.135 A 
ATOM      4  C   UNL d   1      -3.835  -1.091 -13.038  0.00  0.00     0.060 A 
ATOM      5  C   UNL d   1      -3.759  -0.202 -13.489  0.00  0.00    -0.018 A 
ATOM      6  C   UNL d   1      -2.115  -0.552 -13.906  0.00  0.00     0.282 A 
ATOM      7  C   UNL d   1      -2.899   0.068 -13.923  0.00  0.00     0.078 A 
ENDROOT
BRANCH   3   8
ATOM      8  C   UNL d   1      -3.125  -2.600 -12.570  0.00  0.00     0.033 C 
BRANCH   8   9
ATOM      9  C   UNL d   1      -3.262  -3.427 -13.115  0.00  0.00     0.002 C 
BRANCH   9  10
ATOM     10  C   UNL d   1      -2.949  -4.312 -12.770  0.00  0.00    -0.000 C 
BRANCH  10  11
ATOM     11  C   UNL d   1      -3.208  -5.154 -13.243  0.00  0.00    -0.005 C 
ATOM     12  C   UNL d   1      -2.969  -6.042 -12.850  0.00  0.00     0.005 C 
ENDBRANCH  10  11
ENDBRANCH   9  10
ENDBRANCH   8   9
ENDBRANCH   3   8
TORSDOF 4
ENDMDL
MODEL 4
REMARK VINA RESULT:    -5.092      2.730      4.245
REMARK INTER + INTRA:          -5.688
REMARK INTER:                  -6.369
REMARK INTRA:                   0.680
REMARK UNBOUND:                 0.595
REMARK  4 active torsions:
REMARK  status: ('A' for Active; 'I' for Inactive)
REMARK    1  A    between atoms: C_3  and  C_4 
REMARK    2  A    between atoms: C_3  and  C_5 
REMARK    3  A    between atoms: C_5  and  C_6 
REMARK    4  A    between atoms: C_6  and  C_8 
ROOT
ATOM      1  O   UNL d   1      -3.209  -4.229 -13.611  0.00  0.00    -0.312 OA
ATOM      2  O   UNL d   1      -3.877  -5.601 -14.431  0.00  0.00    -0.260 OA
ATOM      3  C   UNL d   1      -2.688  -3.845 -12.849  0.00  0.00     0.135 A 
ATOM      4  C   UNL d   1      -2.313  -4.448 -12.145  0.00  0.00     0.060 A 
ATOM      5  C   UNL d   1      -2.460  -5.436 -12.203  0.00  0.00    -0.018 A 
ATOM      6  C   UNL d   1      -3.356  -5.217 -13.669  0.00  0.00     0.282 A 
ATOM      7  C   UNL d   1      -2.981  -5.820 -12.964  0.00  0.00     0.078 A 
ENDROOT
BRANCH   3   8
ATOM      8  C   UNL d   1      -2.542  -2.858 -12.791  0.00  0.00     0.033 C 
BRANCH   8   9
ATOM      9  C   UNL d   1      -3.320  -2.232 -12.849  0.00  0.00     0.002 C 
BRANCH   9  10
ATOM     10  C   UNL d   1      -3.182  -1.289 -13.151  0.00  0.00    -0.000 C 
BRANCH  10  11
ATOM     11  C   UNL d   1      -3.949  -0.647 -13.152  0.00  0.00    -0.005 C 
ATOM     12  C   UNL d   1      -3.923   0.162 -13.738  0.00  0.00     0.005 C 
ENDBRANCH  10  11
ENDBRANCH   9  10
ENDBRANCH   8   9
ENDBRANCH   3   8
TORSDOF 4
ENDMDL
MODEL 5
REMARK VINA RESULT:    -4.941      2.030      3.612
REMARK INTER + INTRA:          -5.501
REMARK INTER:                  -6.396
REMARK INTRA:                   0.895
REMARK UNBOUND:                 0.595
REMARK  4 active torsions:
REMARK  status: ('A' for Active; 'I' for Inactive)
REMARK    1  A    between atoms: C_3  and  C_4 
REMARK    2  A    between atoms: C_3  and  C_5 
REMARK    3  A    between atoms: C_5  and  C_6 
REMARK    4  A    between atoms: C_6  and  C_8 
ROOT
ATOM      1  O   UNL d   1      -1.467  -2.870 -12.454  0.00  0.00    -0.312 OA
ATOM      2  O   UNL d   1      -1.592  -4.120 -11.261  0.00  0.00    -0.260 OA
ATOM      3  C   UNL d   1      -1.259  -2.582 -13.389  0.00  0.00     0.135 A 
ATOM      4  C   UNL d   1      -0.970  -3.258 -14.067  0.00  0.00     0.060 A 
ATOM      5  C   UNL d   1      -0.887  -4.221 -13.810  0.00  0.00    -0.018 A 
ATOM      6  C   UNL d   1      -1.384  -3.832 -12.196  0.00  0.00     0.282 A 
ATOM      7  C   UNL d   1      -1.095  -4.508 -12.875  0.00  0.00     0.078 A 
ENDROOT
BRANCH   3   8
ATOM      8  C   UNL d   1      -1.342  -1.619 -13.646  0.00  0.00     0.033 C 
BRANCH   8   9
ATOM      9  C   UNL d   1      -2.216  -1.147 -13.540  0.00  0.00     0.002 C 
BRANCH   9  10
ATOM     10  C   UNL d   1      -2.326  -0.215 -13.885  0.00  0.00    -0.000 C 
BRANCH  10  11
ATOM     11  C   UNL d   1      -3.240   0.145 -14.070  0.00  0.00    -0.005 C 
ATOM     12  C   UNL d   1      -4.007  -0.108 -13.480  0.00  0.00     0.005 C 
ENDBRANCH  10  11
ENDBRANCH   9  10
ENDBRANCH   8   9
ENDBRANCH   3   8
TORSDOF 4
ENDMDL
