MODEL 1
REMARK VINA RESULT:    -6.268      0.000      0.000
REMARK INTER + INTRA:          -8.635
REMARK INTER:                  -9.322
REMARK INTRA:                   0.687
REMARK UNBOUND:                 0.565
REMARK  8 active torsions:
REMARK  status: ('A' for Active; 'I' for Inactive)
REMARK    1  A    between atoms: C_3  and  C_4 
REMARK    2  A    between atoms: C_3  and  C_5 
REMARK    3  A    between atoms: C_4  and  C_6 
REMARK    4  A    between atoms: C_7  and  C_5 
REMARK    5  A    between atoms: C_6  and  C_8 
REMARK    6  A    between atoms: C_8  and  C_9 
REMARK    7  A    between atoms: C_9  and  C_11 
REMARK    8  A    between atoms: C_11  and  C_12 
ROOT
ATOM      1  C   UNL d   1      -1.077  -1.323 -14.119  0.00  0.00     0.002 C 
ENDROOT
BRANCH   1   2
ATOM      2  C   UNL d   1      -0.221  -1.646 -14.523  0.00  0.00     0.000 C 
BRANCH   2   3
ATOM      3  C   UNL d   1       0.631  -1.152 -14.351  0.00  0.00     0.000 C 
BRANCH   3   4
ATOM      4  C   UNL d   1       1.394  -1.233 -14.992  0.00  0.00     0.000 C 
BRANCH   4   5
ATOM      5  C   UNL d   1       2.156  -0.586 -14.948  0.00  0.00     0.000 C 
BRANCH   5   6
ATOM      6  C   UNL d   1       2.878  -0.616 -15.638  0.00  0.00    -0.000 C 
BRANCH   6   7
ATOM      7  C   UNL d   1       3.436   0.195 -15.814  0.00  0.00    -0.005 C 
ATOM      8  C   UNL d   1       4.391   0.094 -16.092  0.00  0.00     0.005 C 
ENDBRANCH   6   7
ENDBRANCH   5   6
ENDBRANCH   4   5
ENDBRANCH   3   4
ENDBRANCH   2   3
ENDBRANCH   1   2
BRANCH   1   9
ATOM      9  C   UNL d   1      -1.524  -1.857 -13.402  0.00  0.00     0.033 C 
BRANCH   9  10
ATOM     10  C   UNL d   1      -2.461  -1.639 -13.128  0.00  0.00     0.135 A 
ATOM     11  O   UNL d   1      -2.897  -0.802 -13.457  0.00  0.00    -0.312 OA
ATOM     12  C   UNL d   1      -3.833  -0.584 -13.182  0.00  0.00     0.282 A 
ATOM     13  O   UNL d   1      -4.269   0.254 -13.512  0.00  0.00    -0.260 OA
ATOM     14  C   UNL d   1      -4.334  -1.204 -12.578  0.00  0.00     0.078 A 
ATOM     15  C   UNL d   1      -3.898  -2.042 -12.249  0.00  0.00    -0.018 A 
ATOM     16  C   UNL d   1      -2.962  -2.259 -12.524  0.00  0.00     0.060 A 
ENDBRANCH   9  10
ENDBRANCH   1   9
TORSDOF 8
ENDMDL
MODEL 2
REMARK VINA RESULT:    -6.095      3.261      6.309
REMARK INTER + INTRA:          -8.380
REMARK INTER:                  -9.024
REMARK INTRA:                   0.644
REMARK UNBOUND:                 0.565
REMARK  8 active torsions:
REMARK  status: ('A' for Active; 'I' for Inactive)
REMARK    1  A    between atoms: C_3  and  C_4 
REMARK    2  A    between atoms: C_3  and  C_5 
REMARK    3  A    between atoms: C_4  and  C_6 
REMARK    4  A    between atoms: C_7  and  C_5 
REMARK    5  A    between atoms: C_6  and  C_8 
REMARK    6  A    between atoms: C_8  and  C_9 
REMARK    7  A    between atoms: C_9  and  C_11 
REMARK    8  A    between atoms: C_11  and  C_12 
ROOT
ATOM      1  C   UNL d   1      -3.253  -3.305 -13.144  0.00  0.00     0.002 C 
ENDROOT
BRANCH   1   2
ATOM      2  C   UNL d   1      -3.067  -4.286 -13.084  0.00  0.00     0.000 C 
BRANCH   2   3
ATOM      3  C   UNL d   1      -3.421  -4.906 -13.784  0.00  0.00     0.000 C 
BRANCH   3   4
ATOM      4  C   UNL d   1      -3.553  -5.875 -13.574  0.00  0.00     0.000 C 
BRANCH   4   5
ATOM      5  C   UNL d   1      -4.320  -6.374 -13.978  0.00  0.00     0.000 C 
BRANCH   5   6
ATOM      6  C   UNL d   1      -4.534  -7.299 -13.665  0.00  0.00    -0.000 C 
BRANCH   6   7
ATOM      7  C   UNL d   1      -5.363  -7.756 -13.986  0.00  0.00    -0.005 C 
ATOM      8  C   UNL d   1      -5.736  -8.531 -13.476  0.00  0.00     0.005 C 
ENDBRANCH   6   7
ENDBRANCH   5   6
ENDBRANCH   4   5
ENDBRANCH   3   4
ENDBRANCH   2   3
ENDBRANCH   1   2
BRANCH   1   9
ATOM      9  C   UNL d   1      -2.534  -2.646 -12.924  0.00  0.00     0.033 C 
BRANCH   9  10
ATOM     10  C   UNL d   1      -2.580  -1.716 -13.289  0.00  0.00     0.135 A 
ATOM     11  O   UNL d   1      -3.425  -1.187 -13.205  0.00  0.00    -0.312 OA
ATOM     12  C   UNL d   1      -3.471  -0.258 -13.570  0.00  0.00     0.282 A 
ATOM     13  O   UNL d   1      -4.316   0.271 -13.486  0.00  0.00    -0.260 OA
ATOM     14  C   UNL d   1      -2.673   0.144 -14.019  0.00  0.00     0.078 A 
ATOM     15  C   UNL d   1      -1.828  -0.385 -14.104  0.00  0.00    -0.018 A 
ATOM     16  C   UNL d   1      -1.782  -1.315 -13.739  0.00  0.00     0.060 A 
ENDBRANCH   9  10
ENDBRANCH   1   9
TORSDOF 8
ENDMDL
MODEL 3
REMARK VINA RESULT:    -5.827      2.072      2.683
REMARK INTER + INTRA:          -7.986
REMARK INTER:                  -8.677
REMARK INTRA:                   0.691
REMARK UNBOUND:                 0.565
REMARK  8 active torsions:
REMARK  status: ('A' for Active; 'I' for Inactive)
REMARK    1  A    between atoms: C_3  and  C_4 
REMARK    2  A    between atoms: C_3  and  C_5 
REMARK    3  A    between atoms: C_4  and  C_6 
REMARK    4  A    between atoms: C_7  and  C_5 
REMARK    5  A    between atoms: C_6  and  C_8 
REMARK    6  A    between atoms: C_8  and  C_9 
REMARK    7  A    between atoms: C_9  and  C_11 
REMARK    8  A    between atoms: C_11  and  C_12 
ROOT
ATOM      1  C   UNL d   1      -1.037  -1.711 -14.050  0.00  0.00     0.002 C 
ENDROOT
BRANCH   1   2
ATOM      2  C   UNL d   1      -0.145  -1.811 -14.492  0.00  0.00     0.000 C 
BRANCH   2   3
ATOM      3  C   UNL d   1       0.169  -2.715 -14.783  0.00  0.00     0.000 C 
BRANCH   3   4
ATOM      4  C   UNL d   1       0.846  -2.796 -15.515  0.00  0.00     0.000 C 
BRANCH   4   5
ATOM      5  C   UNL d   1       0.786  -3.550 -16.169  0.00  0.00     0.000 C 
BRANCH   5   6
ATOM      6  C   UNL d   1       1.331  -3.529 -17.007  0.00  0.00    -0.000 C 
BRANCH   6   7
ATOM      7  C   UNL d   1       1.361  -4.330 -17.605  0.00  0.00    -0.005 C 
ATOM      8  C   UNL d   1       2.222  -4.602 -18.035  0.00  0.00     0.005 C 
ENDBRANCH   6   7
ENDBRANCH   5   6
ENDBRANCH   4   5
ENDBRANCH   3   4
ENDBRANCH   2   3
ENDBRANCH   1   2
BRANCH   1   9
ATOM      9  C   UNL d   1      -1.485  -0.817 -14.026  0.00  0.00     0.033 C 
BRANCH   9  10
ATOM     10  C   UNL d   1      -2.420  -0.736 -13.682  0.00  0.00     0.135 A 
ATOM     11  O   UNL d   1      -2.786  -1.429 -13.060  0.00  0.00    -0.312 OA
ATOM     12  C   UNL d   1      -3.722  -1.348 -12.717  0.00  0.00     0.282 A 
ATOM     13  O   UNL d   1      -4.088  -2.041 -12.095  0.00  0.00    -0.260 OA
ATOM     14  C   UNL d   1      -4.291  -0.574 -12.994  0.00  0.00     0.078 A 
ATOM     15  C   UNL d   1      -3.925   0.119 -13.615  0.00  0.00    -0.018 A 
ATOM     16  C   UNL d   1      -2.989   0.038 -13.959  0.00  0.00     0.060 A 
ENDBRANCH   9  10
ENDBRANCH   1   9
TORSDOF 8
ENDMDL
MODEL 4
REMARK VINA RESULT:    -5.758      2.548      6.398
REMARK INTER + INTRA:          -7.886
REMARK INTER:                  -8.714
REMARK INTRA:                   0.828
REMARK UNBOUND:                 0.565
REMARK  8 active torsions:
REMARK  status: ('A' for Active; 'I' for Inactive)
REMARK    1  A    between atoms: C_3  and  C_4 
REMARK    2  A    between atoms: C_3  and  C_5 
REMARK    3  A    between atoms: C_4  and  C_6 
REMARK    4  A    between atoms: C_7  and  C_5 
REMARK    5  A    between atoms: C_6  and  C_8 
REMARK    6  A    between atoms: C_8  and  C_9 
REMARK    7  A    between atoms: C_9  and  C_11 
REMARK    8  A    between atoms: C_11  and  C_12 
ROOT
ATOM      1  C   UNL d   1       0.868  -1.110 -14.523  0.00  0.00     0.002 C 
ENDROOT
BRANCH   1   2
ATOM      2  C   UNL d   1      -0.079  -1.430 -14.520  0.00  0.00     0.000 C 
BRANCH   2   3
ATOM      3  C   UNL d   1      -0.757  -0.983 -13.937  0.00  0.00     0.000 C 
BRANCH   3   4
ATOM      4  C   UNL d   1      -1.708  -0.916 -14.237  0.00  0.00     0.000 C 
BRANCH   4   5
ATOM      5  C   UNL d   1      -2.413  -0.607 -13.599  0.00  0.00     0.000 C 
BRANCH   5   6
ATOM      6  C   UNL d   1      -3.049  -1.267 -13.198  0.00  0.00    -0.000 C 
BRANCH   6   7
ATOM      7  C   UNL d   1      -3.966  -0.976 -12.925  0.00  0.00    -0.005 C 
ATOM      8  C   UNL d   1      -4.491  -1.524 -12.274  0.00  0.00     0.005 C 
ENDBRANCH   6   7
ENDBRANCH   5   6
ENDBRANCH   4   5
ENDBRANCH   3   4
ENDBRANCH   2   3
ENDBRANCH   1   2
BRANCH   1   9
ATOM      9  C   UNL d   1       1.541  -1.542 -15.124  0.00  0.00     0.033 C 
BRANCH   9  10
ATOM     10  C   UNL d   1       2.247  -0.988 -15.565  0.00  0.00     0.135 A 
ATOM     11  O   UNL d   1       2.436  -1.103 -16.540  0.00  0.00    -0.312 OA
ATOM     12  C   UNL d   1       3.142  -0.549 -16.981  0.00  0.00     0.282 A 
ATOM     13  O   UNL d   1       3.332  -0.664 -17.956  0.00  0.00    -0.260 OA
ATOM     14  C   UNL d   1       3.659   0.121 -16.447  0.00  0.00     0.078 A 
ATOM     15  C   UNL d   1       3.469   0.236 -15.472  0.00  0.00    -0.018 A 
ATOM     16  C   UNL d   1       2.763  -0.318 -15.031  0.00  0.00     0.060 A 
ENDBRANCH   9  10
ENDBRANCH   1   9
TORSDOF 8
ENDMDL
MODEL 5
REMARK VINA RESULT:    -5.609     20.150     20.722
REMARK INTER + INTRA:          -7.667
REMARK INTER:                  -8.270
REMARK INTRA:                   0.603
REMARK UNBOUND:                 0.565
REMARK  8 active torsions:
REMARK  status: ('A' for Active; 'I' for Inactive)
REMARK    1  A    between atoms: C_3  and  C_4 
REMARK    2  A    between atoms: C_3  and  C_5 
REMARK    3  A    between atoms: C_4  and  C_6 
REMARK    4  A    between atoms: C_7  and  C_5 
REMARK    5  A    between atoms: C_6  and  C_8 
REMARK    6  A    between atoms: C_8  and  C_9 
REMARK    7  A    between atoms: C_9  and  C_11 
REMARK    8  A    between atoms: C_11  and  C_12 
ROOT
ATOM      1  C   UNL d   1       5.397  12.822  -0.288  0.00  0.00     0.002 C 
ENDROOT
BRANCH   1   2
ATOM      2  C   UNL d   1       5.241  11.889   0.037  0.00  0.00     0.000 C 
BRANCH   2   3
ATOM      3  C   UNL d   1       5.882  11.161  -0.207  0.00  0.00     0.000 C 
BRANCH   3   4
ATOM      4  C   UNL d   1       5.789  10.255   0.206  0.00  0.00     0.000 C 
BRANCH   4   5
ATOM      5  C   UNL d   1       6.168   9.454  -0.258  0.00  0.00     0.000 C 
BRANCH   5   6
ATOM      6  C   UNL d   1       5.688   8.578  -0.216  0.00  0.00    -0.000 C 
BRANCH   6   7
ATOM      7  C   UNL d   1       6.086   7.768  -0.646  0.00  0.00    -0.005 C 
ATOM      8  C   UNL d   1       5.494   7.026  -0.958  0.00  0.00     0.005 C 
ENDBRANCH   6   7
ENDBRANCH   5   6
ENDBRANCH   4   5
ENDBRANCH   3   4
ENDBRANCH   2   3
ENDBRANCH   1   2
BRANCH   1   9
ATOM      9  C   UNL d   1       4.895  13.584   0.121  0.00  0.00     0.033 C 
BRANCH   9  10
ATOM     10  C   UNL d   1       4.990  14.505  -0.257  0.00  0.00     0.135 A 
ATOM     11  O   UNL d   1       5.827  14.765  -0.738  0.00  0.00    -0.312 OA
ATOM     12  C   UNL d   1       5.921  15.686  -1.117  0.00  0.00     0.282 A 
ATOM     13  O   UNL d   1       6.758  15.945  -1.598  0.00  0.00    -0.260 OA
ATOM     14  C   UNL d   1       5.178  16.347  -1.013  0.00  0.00     0.078 A 
ATOM     15  C   UNL d   1       4.341  16.088  -0.531  0.00  0.00    -0.018 A 
ATOM     16  C   UNL d   1       4.247  15.167  -0.153  0.00  0.00     0.060 A 
ENDBRANCH   9  10
ENDBRANCH   1   9
TORSDOF 8
ENDMDL
