MODEL 1
REMARK VINA RESULT:    -6.226      0.000      0.000
REMARK INTER + INTRA:          -6.226
REMARK INTER:                  -6.226
REMARK INTRA:                   0.000
REMARK UNBOUND:                 0.000
REMARK  0 active torsions:
REMARK  status: ('A' for Active; 'I' for Inactive)
ROOT
ATOM      1  O   UNL d   1      46.313  29.387  27.397  0.00  0.00    -0.265 OA
ATOM      2  O   UNL d   1      47.772  27.713  24.737  0.00  0.00    -0.246 OA
ATOM      3  N   UNL d   1      48.228  29.347  25.087  0.00  0.00    -0.286 N 
ATOM      4  N   UNL d   1      47.553  31.080  26.843  0.00  0.00    -0.338 N 
ATOM      5  N   UNL d   1      47.042  28.550  26.067  0.00  0.00    -0.269 N 
ATOM      6  N   UNL d   1      48.581  31.059  25.604  0.00  0.00    -0.223 NA
ATOM      7  C   UNL d   1      47.499  30.184  26.417  0.00  0.00     0.151 A 
ATOM      8  C   UNL d   1      48.137  30.170  25.647  0.00  0.00     0.167 A 
ATOM      9  C   UNL d   1      46.951  29.374  26.627  0.00  0.00     0.282 A 
ATOM     10  C   UNL d   1      47.681  28.537  25.297  0.00  0.00     0.332 A 
ATOM     11  C   UNL d   1      48.221  31.620  26.342  0.00  0.00     0.212 A 
ATOM     12  C   UNL d   1      48.866  29.334  24.318  0.00  0.00     0.163 C 
ATOM     13  C   UNL d   1      47.029  31.386  27.637  0.00  0.00     0.157 C 
ATOM     14  C   UNL d   1      46.495  27.740  26.277  0.00  0.00     0.164 C 
ENDROOT
TORSDOF 0
ENDMDL
MODEL 2
REMARK VINA RESULT:    -6.173      1.418      3.525
REMARK INTER + INTRA:          -6.173
REMARK INTER:                  -6.173
REMARK INTRA:                   0.000
REMARK UNBOUND:                 0.000
REMARK  0 active torsions:
REMARK  status: ('A' for Active; 'I' for Inactive)
ROOT
ATOM      1  O   UNL d   1      48.548  30.222  25.065  0.00  0.00    -0.265 OA
ATOM      2  O   UNL d   1      47.773  32.379  27.662  0.00  0.00    -0.246 OA
ATOM      3  N   UNL d   1      47.026  30.818  27.581  0.00  0.00    -0.286 N 
ATOM      4  N   UNL d   1      47.160  28.827  25.981  0.00  0.00    -0.338 N 
ATOM      5  N   UNL d   1      48.160  31.300  26.364  0.00  0.00    -0.269 N 
ATOM      6  N   UNL d   1      46.344  29.147  27.332  0.00  0.00    -0.223 NA
ATOM      7  C   UNL d   1      47.414  29.740  26.282  0.00  0.00     0.151 A 
ATOM      8  C   UNL d   1      46.906  29.938  27.121  0.00  0.00     0.167 A 
ATOM      9  C   UNL d   1      48.041  30.420  25.903  0.00  0.00     0.282 A 
ATOM     10  C   UNL d   1      47.653  31.499  27.202  0.00  0.00     0.332 A 
ATOM     11  C   UNL d   1      46.500  28.460  26.629  0.00  0.00     0.212 A 
ATOM     12  C   UNL d   1      46.519  31.017  28.419  0.00  0.00     0.163 C 
ATOM     13  C   UNL d   1      47.508  28.358  25.170  0.00  0.00     0.157 C 
ATOM     14  C   UNL d   1      48.788  31.981  25.985  0.00  0.00     0.164 C 
ENDROOT
TORSDOF 0
ENDMDL
MODEL 3
REMARK VINA RESULT:    -6.105      1.079      2.156
REMARK INTER + INTRA:          -6.105
REMARK INTER:                  -6.105
REMARK INTRA:                   0.000
REMARK UNBOUND:                 0.000
REMARK  0 active torsions:
REMARK  status: ('A' for Active; 'I' for Inactive)
ROOT
ATOM      1  O   UNL d   1      48.812  30.049  24.787  0.00  0.00    -0.265 OA
ATOM      2  O   UNL d   1      46.797  27.435  25.841  0.00  0.00    -0.246 OA
ATOM      3  N   UNL d   1      46.752  28.954  26.673  0.00  0.00    -0.286 N 
ATOM      4  N   UNL d   1      47.944  31.201  26.409  0.00  0.00    -0.338 N 
ATOM      5  N   UNL d   1      47.805  28.742  25.314  0.00  0.00    -0.269 N 
ATOM      6  N   UNL d   1      46.838  30.614  27.421  0.00  0.00    -0.223 NA
ATOM      7  C   UNL d   1      47.759  30.261  26.146  0.00  0.00     0.151 A 
ATOM      8  C   UNL d   1      47.072  29.896  26.775  0.00  0.00     0.167 A 
ATOM      9  C   UNL d   1      48.125  29.684  25.416  0.00  0.00     0.282 A 
ATOM     10  C   UNL d   1      47.118  28.377  25.943  0.00  0.00     0.332 A 
ATOM     11  C   UNL d   1      47.375  31.419  27.196  0.00  0.00     0.212 A 
ATOM     12  C   UNL d   1      46.065  28.589  27.302  0.00  0.00     0.163 C 
ATOM     13  C   UNL d   1      48.588  31.821  25.961  0.00  0.00     0.157 C 
ATOM     14  C   UNL d   1      48.171  28.166  24.584  0.00  0.00     0.164 C 
ENDROOT
TORSDOF 0
ENDMDL
MODEL 4
REMARK VINA RESULT:    -5.927      1.060      2.642
REMARK INTER + INTRA:          -5.927
REMARK INTER:                  -5.927
REMARK INTRA:                   0.000
REMARK UNBOUND:                 0.000
REMARK  0 active torsions:
REMARK  status: ('A' for Active; 'I' for Inactive)
ROOT
ATOM      1  O   UNL d   1      47.258  28.517  25.821  0.00  0.00    -0.265 OA
ATOM      2  O   UNL d   1      46.121  30.020  28.728  0.00  0.00    -0.246 OA
ATOM      3  N   UNL d   1      47.115  30.910  27.625  0.00  0.00    -0.286 N 
ATOM      4  N   UNL d   1      48.241  30.402  25.385  0.00  0.00    -0.338 N 
ATOM      5  N   UNL d   1      46.689  29.268  27.275  0.00  0.00    -0.269 N 
ATOM      6  N   UNL d   1      48.164  31.687  26.353  0.00  0.00    -0.223 NA
ATOM      7  C   UNL d   1      47.683  30.159  26.171  0.00  0.00     0.151 A 
ATOM      8  C   UNL d   1      47.636  30.957  26.772  0.00  0.00     0.167 A 
ATOM      9  C   UNL d   1      47.210  29.315  26.422  0.00  0.00     0.282 A 
ATOM     10  C   UNL d   1      46.642  30.066  27.876  0.00  0.00     0.332 A 
ATOM     11  C   UNL d   1      48.538  31.345  25.497  0.00  0.00     0.212 A 
ATOM     12  C   UNL d   1      47.067  31.708  28.226  0.00  0.00     0.163 C 
ATOM     13  C   UNL d   1      48.465  29.805  24.616  0.00  0.00     0.157 C 
ATOM     14  C   UNL d   1      46.216  28.424  27.526  0.00  0.00     0.164 C 
ENDROOT
TORSDOF 0
ENDMDL
MODEL 5
REMARK VINA RESULT:    -5.915     26.779     28.084
REMARK INTER + INTRA:          -5.915
REMARK INTER:                  -5.915
REMARK INTRA:                   0.000
REMARK UNBOUND:                 0.000
REMARK  0 active torsions:
REMARK  status: ('A' for Active; 'I' for Inactive)
ROOT
ATOM      1  O   UNL d   1      23.319  45.403  29.947  0.00  0.00    -0.265 OA
ATOM      2  O   UNL d   1      24.387  47.552  27.448  0.00  0.00    -0.246 OA
ATOM      3  N   UNL d   1      25.288  46.115  27.799  0.00  0.00    -0.286 N 
ATOM      4  N   UNL d   1      25.047  44.184  29.458  0.00  0.00    -0.338 N 
ATOM      5  N   UNL d   1      23.853  46.477  28.697  0.00  0.00    -0.269 N 
ATOM      6  N   UNL d   1      26.104  44.566  28.305  0.00  0.00    -0.223 NA
ATOM      7  C   UNL d   1      24.754  45.041  29.048  0.00  0.00     0.151 A 
ATOM      8  C   UNL d   1      25.411  45.278  28.332  0.00  0.00     0.167 A 
ATOM      9  C   UNL d   1      23.975  45.640  29.231  0.00  0.00     0.282 A 
ATOM     10  C   UNL d   1      24.509  46.715  27.981  0.00  0.00     0.332 A 
ATOM     11  C   UNL d   1      25.879  43.890  29.000  0.00  0.00     0.212 A 
ATOM     12  C   UNL d   1      25.945  46.352  27.083  0.00  0.00     0.163 C 
ATOM     13  C   UNL d   1      24.585  43.700  30.201  0.00  0.00     0.157 C 
ATOM     14  C   UNL d   1      23.074  47.077  28.880  0.00  0.00     0.164 C 
ENDROOT
TORSDOF 0
ENDMDL
