MODEL 1
REMARK VINA RESULT:    -7.523      0.000      0.000
REMARK INTER + INTRA:          -4.634
REMARK INTER:                  -9.657
REMARK INTRA:                   5.023
REMARK UNBOUND:                 5.089
REMARK  6 active torsions:
REMARK  status: ('A' for Active; 'I' for Inactive)
REMARK    1  A    between atoms: O_2  and  C_15 
REMARK    2  A    between atoms: O_3  and  C_17 
REMARK    3  A    between atoms: O_4  and  C_11 
REMARK    4  A    between atoms: O_6  and  C_22 
REMARK    5  A    between atoms: O_7  and  C_20 
REMARK    6  A    between atoms: C_10  and  C_13 
ROOT
ATOM      1  O   UNL d   1      -4.886  19.611 -11.725  0.00  0.00    -0.309 OA
ATOM      2  O   UNL d   1      -2.581  18.696  -9.918  0.00  0.00    -0.287 OA
ATOM      3  C   UNL d   1      -3.188  19.733 -11.216  0.00  0.00     0.084 A 
ATOM      4  C   UNL d   1      -3.937  20.034 -11.807  0.00  0.00     0.096 A 
ATOM      5  C   UNL d   1      -5.057  18.866 -11.018  0.00  0.00     0.090 A 
ATOM      6  C   UNL d   1      -2.283  20.147 -11.306  0.00  0.00     0.119 A 
ATOM      7  C   UNL d   1      -3.337  18.989 -10.503  0.00  0.00     0.190 A 
ATOM      8  C   UNL d   1      -3.780  20.749 -12.488  0.00  0.00     0.078 A 
ATOM      9  C   UNL d   1      -2.126  20.863 -11.987  0.00  0.00     0.136 A 
ATOM     10  C   UNL d   1      -4.277  18.552 -10.403  0.00  0.00     0.094 A 
ATOM     11  C   UNL d   1      -2.874  21.164 -12.578  0.00  0.00     0.107 A 
ENDROOT
BRANCH   5  12
ATOM     12  C   UNL d   1      -5.963  18.453 -10.931  0.00  0.00     0.001 A 
ATOM     13  C   UNL d   1      -6.628  18.839 -10.291  0.00  0.00     0.053 A 
ATOM     14  C   UNL d   1      -7.535  18.427 -10.203  0.00  0.00     0.099 A 
ATOM     15  C   UNL d   1      -7.777  17.629 -10.756  0.00  0.00     0.101 A 
ATOM     16  C   UNL d   1      -7.113  17.244 -11.396  0.00  0.00     0.040 A 
ATOM     17  C   UNL d   1      -6.206  17.656 -11.483  0.00  0.00     0.017 A 
BRANCH  14  18
ATOM     18  O   UNL d   1      -8.200  18.811  -9.563  0.00  0.00    -0.358 OA
ATOM     19  H   UNL d   1      -8.803  18.814  -9.706  0.00  0.00     0.217 HD
ENDBRANCH  14  18
BRANCH  15  20
ATOM     20  O   UNL d   1      -8.684  17.217 -10.668  0.00  0.00    -0.353 OA
ATOM     21  C   UNL d   1      -9.034  16.620 -11.390  0.00  0.00     0.210 C 
ENDBRANCH  15  20
ENDBRANCH   5  12
BRANCH   6  22
ATOM     22  O   UNL d   1      -1.534  19.846 -10.716  0.00  0.00    -0.357 OA
ATOM     23  H   UNL d   1      -0.955  19.822 -10.937  0.00  0.00     0.218 HD
ENDBRANCH   6  22
BRANCH  11  24
ATOM     24  O   UNL d   1      -2.718  21.879 -13.259  0.00  0.00    -0.353 OA
ATOM     25  C   UNL d   1      -3.436  22.112 -13.914  0.00  0.00     0.210 C 
ENDBRANCH  11  24
BRANCH   9  26
ATOM     26  O   UNL d   1      -1.220  21.277 -12.077  0.00  0.00    -0.351 OA
ATOM     27  C   UNL d   1      -0.954  22.032 -11.478  0.00  0.00     0.210 C 
ENDBRANCH   9  26
TORSDOF 6
ENDMDL
MODEL 2
REMARK VINA RESULT:    -7.503     34.158     35.592
REMARK INTER + INTRA:          -4.607
REMARK INTER:                  -9.638
REMARK INTRA:                   5.031
REMARK UNBOUND:                 5.089
REMARK  6 active torsions:
REMARK  status: ('A' for Active; 'I' for Inactive)
REMARK    1  A    between atoms: O_2  and  C_15 
REMARK    2  A    between atoms: O_3  and  C_17 
REMARK    3  A    between atoms: O_4  and  C_11 
REMARK    4  A    between atoms: O_6  and  C_22 
REMARK    5  A    between atoms: O_7  and  C_20 
REMARK    6  A    between atoms: C_10  and  C_13 
ROOT
ATOM      1  O   UNL d   1      17.547   7.049  13.856  0.00  0.00    -0.309 OA
ATOM      2  O   UNL d   1      14.573   7.732  13.532  0.00  0.00    -0.287 OA
ATOM      3  C   UNL d   1      16.174   8.133  14.168  0.00  0.00     0.084 A 
ATOM      4  C   UNL d   1      17.144   7.914  14.276  0.00  0.00     0.096 A 
ATOM      5  C   UNL d   1      16.931   6.405  13.317  0.00  0.00     0.090 A 
ATOM      6  C   UNL d   1      15.802   8.966  14.577  0.00  0.00     0.119 A 
ATOM      7  C   UNL d   1      15.541   7.503  13.633  0.00  0.00     0.190 A 
ATOM      8  C   UNL d   1      17.741   8.528  14.792  0.00  0.00     0.078 A 
ATOM      9  C   UNL d   1      16.399   9.580  15.093  0.00  0.00     0.136 A 
ATOM     10  C   UNL d   1      15.921   6.633  13.205  0.00  0.00     0.094 A 
ATOM     11  C   UNL d   1      17.368   9.361  15.201  0.00  0.00     0.107 A 
ENDROOT
BRANCH   5  12
ATOM     12  C   UNL d   1      17.307   5.573  12.910  0.00  0.00     0.001 A 
ATOM     13  C   UNL d   1      17.693   5.598  11.987  0.00  0.00     0.053 A 
ATOM     14  C   UNL d   1      18.070   4.766  11.579  0.00  0.00     0.099 A 
ATOM     15  C   UNL d   1      18.060   3.909  12.094  0.00  0.00     0.101 A 
ATOM     16  C   UNL d   1      17.674   3.883  13.016  0.00  0.00     0.040 A 
ATOM     17  C   UNL d   1      17.298   4.716  13.424  0.00  0.00     0.017 A 
BRANCH  14  18
ATOM     18  O   UNL d   1      18.456   4.790  10.657  0.00  0.00    -0.358 OA
ATOM     19  H   UNL d   1      18.787   4.311  10.446  0.00  0.00     0.217 HD
ENDBRANCH  14  18
BRANCH  15  20
ATOM     20  O   UNL d   1      18.435   3.077  11.687  0.00  0.00    -0.353 OA
ATOM     21  C   UNL d   1      18.472   2.231  12.219  0.00  0.00     0.210 C 
ENDBRANCH  15  20
ENDBRANCH   5  12
BRANCH   6  22
ATOM     22  O   UNL d   1      14.832   9.185  14.469  0.00  0.00    -0.357 OA
ATOM     23  H   UNL d   1      14.589   9.245  13.902  0.00  0.00     0.218 HD
ENDBRANCH   6  22
BRANCH  11  24
ATOM     24  O   UNL d   1      17.965   9.975  15.717  0.00  0.00    -0.353 OA
ATOM     25  C   UNL d   1      18.958   9.857  15.677  0.00  0.00     0.210 C 
ENDBRANCH  11  24
BRANCH   9  26
ATOM     26  O   UNL d   1      16.026  10.413  15.501  0.00  0.00    -0.351 OA
ATOM     27  C   UNL d   1      15.626  10.385  16.418  0.00  0.00     0.210 C 
ENDBRANCH   9  26
TORSDOF 6
ENDMDL
MODEL 3
REMARK VINA RESULT:    -7.391     19.682     21.400
REMARK INTER + INTRA:          -4.463
REMARK INTER:                  -9.709
REMARK INTRA:                   5.246
REMARK UNBOUND:                 5.089
REMARK  6 active torsions:
REMARK  status: ('A' for Active; 'I' for Inactive)
REMARK    1  A    between atoms: O_2  and  C_15 
REMARK    2  A    between atoms: O_3  and  C_17 
REMARK    3  A    between atoms: O_4  and  C_11 
REMARK    4  A    between atoms: O_6  and  C_22 
REMARK    5  A    between atoms: O_7  and  C_20 
REMARK    6  A    between atoms: C_10  and  C_13 
ROOT
ATOM      1  O   UNL d   1       1.972  38.737  -8.995  0.00  0.00    -0.309 OA
ATOM      2  O   UNL d   1       1.502  41.722  -8.457  0.00  0.00    -0.287 OA
ATOM      3  C   UNL d   1       1.436  40.335  -9.555  0.00  0.00     0.084 A 
ATOM      4  C   UNL d   1       1.588  39.363  -9.734  0.00  0.00     0.096 A 
ATOM      5  C   UNL d   1       2.201  39.129  -8.058  0.00  0.00     0.090 A 
ATOM      6  C   UNL d   1       1.067  40.924 -10.274  0.00  0.00     0.119 A 
ATOM      7  C   UNL d   1       1.658  40.748  -8.625  0.00  0.00     0.190 A 
ATOM      8  C   UNL d   1       1.370  38.980 -10.632  0.00  0.00     0.078 A 
ATOM      9  C   UNL d   1       0.849  40.541 -11.171  0.00  0.00     0.136 A 
ATOM     10  C   UNL d   1       2.043  40.142  -7.871  0.00  0.00     0.094 A 
ATOM     11  C   UNL d   1       1.001  39.569 -11.350  0.00  0.00     0.107 A 
ENDROOT
BRANCH   5  12
ATOM     12  C   UNL d   1       2.570  38.537  -7.341  0.00  0.00     0.001 A 
ATOM     13  C   UNL d   1       2.064  37.723  -7.056  0.00  0.00     0.053 A 
ATOM     14  C   UNL d   1       2.433  37.130  -6.339  0.00  0.00     0.099 A 
ATOM     15  C   UNL d   1       3.307  37.353  -5.908  0.00  0.00     0.101 A 
ATOM     16  C   UNL d   1       3.813  38.167  -6.194  0.00  0.00     0.040 A 
ATOM     17  C   UNL d   1       3.444  38.759  -6.910  0.00  0.00     0.017 A 
BRANCH  14  18
ATOM     18  O   UNL d   1       1.928  36.316  -6.054  0.00  0.00    -0.358 OA
ATOM     19  H   UNL d   1       1.666  36.294  -5.493  0.00  0.00     0.217 HD
ENDBRANCH  14  18
BRANCH  15  20
ATOM     20  O   UNL d   1       3.676  36.761  -5.192  0.00  0.00    -0.353 OA
ATOM     21  C   UNL d   1       4.403  37.095  -4.592  0.00  0.00     0.210 C 
ENDBRANCH  15  20
ENDBRANCH   5  12
BRANCH   6  22
ATOM     22  O   UNL d   1       0.915  41.896 -10.095  0.00  0.00    -0.357 OA
ATOM     23  H   UNL d   1       0.567  42.232 -10.483  0.00  0.00     0.218 HD
ENDBRANCH   6  22
BRANCH  11  24
ATOM     24  O   UNL d   1       0.783  39.186 -12.248  0.00  0.00    -0.353 OA
ATOM     25  C   UNL d   1       1.383  38.499 -12.657  0.00  0.00     0.210 C 
ENDBRANCH  11  24
BRANCH   9  26
ATOM     26  O   UNL d   1       0.480  41.130 -11.890  0.00  0.00    -0.351 OA
ATOM     27  C   UNL d   1      -0.486  41.389 -11.878  0.00  0.00     0.210 C 
ENDBRANCH   9  26
TORSDOF 6
ENDMDL
MODEL 4
REMARK VINA RESULT:    -7.241     19.554     21.433
REMARK INTER + INTRA:          -4.269
REMARK INTER:                  -9.311
REMARK INTRA:                   5.042
REMARK UNBOUND:                 5.089
REMARK  6 active torsions:
REMARK  status: ('A' for Active; 'I' for Inactive)
REMARK    1  A    between atoms: O_2  and  C_15 
REMARK    2  A    between atoms: O_3  and  C_17 
REMARK    3  A    between atoms: O_4  and  C_11 
REMARK    4  A    between atoms: O_6  and  C_22 
REMARK    5  A    between atoms: O_7  and  C_20 
REMARK    6  A    between atoms: C_10  and  C_13 
ROOT
ATOM      1  O   UNL d   1       1.794  38.764  -8.826  0.00  0.00    -0.309 OA
ATOM      2  O   UNL d   1       3.522  41.199  -8.114  0.00  0.00    -0.287 OA
ATOM      3  C   UNL d   1       2.898  39.593  -7.709  0.00  0.00     0.084 A 
ATOM      4  C   UNL d   1       2.336  38.799  -7.937  0.00  0.00     0.096 A 
ATOM      5  C   UNL d   1       1.838  39.570  -9.486  0.00  0.00     0.090 A 
ATOM      6  C   UNL d   1       3.413  39.612  -6.852  0.00  0.00     0.119 A 
ATOM      7  C   UNL d   1       2.957  40.409  -8.353  0.00  0.00     0.190 A 
ATOM      8  C   UNL d   1       2.289  38.022  -7.309  0.00  0.00     0.078 A 
ATOM      9  C   UNL d   1       3.366  38.836  -6.223  0.00  0.00     0.136 A 
ATOM     10  C   UNL d   1       2.424  40.398  -9.248  0.00  0.00     0.094 A 
ATOM     11  C   UNL d   1       2.804  38.041  -6.452  0.00  0.00     0.107 A 
ENDROOT
BRANCH   5  12
ATOM     12  C   UNL d   1       1.322  39.548 -10.342  0.00  0.00     0.001 A 
ATOM     13  C   UNL d   1       1.661  39.013 -11.116  0.00  0.00     0.053 A 
ATOM     14  C   UNL d   1       1.146  38.991 -11.973  0.00  0.00     0.099 A 
ATOM     15  C   UNL d   1       0.291  39.504 -12.055  0.00  0.00     0.101 A 
ATOM     16  C   UNL d   1      -0.048  40.038 -11.280  0.00  0.00     0.040 A 
ATOM     17  C   UNL d   1       0.468  40.060 -10.424  0.00  0.00     0.017 A 
BRANCH  14  18
ATOM     18  O   UNL d   1       1.484  38.457 -12.748  0.00  0.00    -0.358 OA
ATOM     19  H   UNL d   1       1.086  38.216 -13.156  0.00  0.00     0.217 HD
ENDBRANCH  14  18
BRANCH  15  20
ATOM     20  O   UNL d   1      -0.225  39.482 -12.911  0.00  0.00    -0.353 OA
ATOM     21  C   UNL d   1      -1.119  39.926 -12.968  0.00  0.00     0.210 C 
ENDBRANCH  15  20
ENDBRANCH   5  12
BRANCH   6  22
ATOM     22  O   UNL d   1       3.975  40.407  -6.623  0.00  0.00    -0.357 OA
ATOM     23  H   UNL d   1       3.771  40.978  -6.751  0.00  0.00     0.218 HD
ENDBRANCH   6  22
BRANCH  11  24
ATOM     24  O   UNL d   1       2.757  37.264  -5.823  0.00  0.00    -0.353 OA
ATOM     25  C   UNL d   1       2.262  36.436  -6.088  0.00  0.00     0.210 C 
ENDBRANCH  11  24
BRANCH   9  26
ATOM     26  O   UNL d   1       3.881  38.854  -5.366  0.00  0.00    -0.351 OA
ATOM     27  C   UNL d   1       4.864  38.667  -5.369  0.00  0.00     0.210 C 
ENDBRANCH   9  26
TORSDOF 6
ENDMDL
MODEL 5
REMARK VINA RESULT:    -7.150     34.092     35.674
REMARK INTER + INTRA:          -4.151
REMARK INTER:                  -9.494
REMARK INTRA:                   5.343
REMARK UNBOUND:                 5.089
REMARK  6 active torsions:
REMARK  status: ('A' for Active; 'I' for Inactive)
REMARK    1  A    between atoms: O_2  and  C_15 
REMARK    2  A    between atoms: O_3  and  C_17 
REMARK    3  A    between atoms: O_4  and  C_11 
REMARK    4  A    between atoms: O_6  and  C_22 
REMARK    5  A    between atoms: O_7  and  C_20 
REMARK    6  A    between atoms: C_10  and  C_13 
ROOT
ATOM      1  O   UNL d   1      17.708   6.658  13.746  0.00  0.00    -0.309 OA
ATOM      2  O   UNL d   1      16.259   6.027  11.116  0.00  0.00    -0.287 OA
ATOM      3  C   UNL d   1      17.561   5.689  12.265  0.00  0.00     0.084 A 
ATOM      4  C   UNL d   1      18.036   5.891  13.121  0.00  0.00     0.096 A 
ATOM      5  C   UNL d   1      16.875   7.220  13.476  0.00  0.00     0.090 A 
ATOM      6  C   UNL d   1      17.887   4.950  11.675  0.00  0.00     0.119 A 
ATOM      7  C   UNL d   1      16.726   6.239  11.974  0.00  0.00     0.190 A 
ATOM      8  C   UNL d   1      18.837   5.355  13.388  0.00  0.00     0.078 A 
ATOM      9  C   UNL d   1      18.688   4.414  11.941  0.00  0.00     0.136 A 
ATOM     10  C   UNL d   1      16.380   7.009  12.583  0.00  0.00     0.094 A 
ATOM     11  C   UNL d   1      19.163   4.617  12.798  0.00  0.00     0.107 A 
ENDROOT
BRANCH   5  12
ATOM     12  C   UNL d   1      16.551   7.958  14.068  0.00  0.00     0.001 A 
ATOM     13  C   UNL d   1      15.578   8.183  14.099  0.00  0.00     0.053 A 
ATOM     14  C   UNL d   1      15.253   8.921  14.691  0.00  0.00     0.099 A 
ATOM     15  C   UNL d   1      15.904   9.434  15.252  0.00  0.00     0.101 A 
ATOM     16  C   UNL d   1      16.878   9.208  15.221  0.00  0.00     0.040 A 
ATOM     17  C   UNL d   1      17.201   8.471  14.629  0.00  0.00     0.017 A 
BRANCH  14  18
ATOM     18  O   UNL d   1      14.280   9.147  14.723  0.00  0.00    -0.358 OA
ATOM     19  H   UNL d   1      14.088   9.652  15.027  0.00  0.00     0.217 HD
ENDBRANCH  14  18
BRANCH  15  20
ATOM     20  O   UNL d   1      15.580  10.171  15.844  0.00  0.00    -0.353 OA
ATOM     21  C   UNL d   1      16.157  10.504  16.590  0.00  0.00     0.210 C 
ENDBRANCH  15  20
ENDBRANCH   5  12
BRANCH   6  22
ATOM     22  O   UNL d   1      17.412   4.748  10.818  0.00  0.00    -0.357 OA
ATOM     23  H   UNL d   1      17.085   5.191  10.533  0.00  0.00     0.218 HD
ENDBRANCH   6  22
BRANCH  11  24
ATOM     24  O   UNL d   1      19.964   4.080  13.064  0.00  0.00    -0.353 OA
ATOM     25  C   UNL d   1      20.391   4.229  13.956  0.00  0.00     0.210 C 
ENDBRANCH  11  24
BRANCH   9  26
ATOM     26  O   UNL d   1      19.014   3.676  11.351  0.00  0.00    -0.351 OA
ATOM     27  C   UNL d   1      18.597   2.769  11.408  0.00  0.00     0.210 C 
ENDBRANCH   9  26
TORSDOF 6
ENDMDL
