MODEL 1
REMARK VINA RESULT:    -9.081      0.000      0.000
REMARK INTER + INTRA:          -6.615
REMARK INTER:                 -11.641
REMARK INTRA:                   5.026
REMARK UNBOUND:                 5.120
REMARK  6 active torsions:
REMARK  status: ('A' for Active; 'I' for Inactive)
REMARK    1  A    between atoms: O_2  and  C_15 
REMARK    2  A    between atoms: O_3  and  C_17 
REMARK    3  A    between atoms: O_4  and  C_11 
REMARK    4  A    between atoms: O_6  and  C_22 
REMARK    5  A    between atoms: O_7  and  C_20 
REMARK    6  A    between atoms: C_10  and  C_13 
ROOT
ATOM      1  O   UNL d   1       0.494  27.632  10.266  0.00  0.00    -0.309 OA
ATOM      2  O   UNL d   1      -1.402  28.065   7.892  0.00  0.00    -0.287 OA
ATOM      3  C   UNL d   1      -0.628  26.978   9.054  0.00  0.00     0.084 A 
ATOM      4  C   UNL d   1      -0.011  26.833   9.828  0.00  0.00     0.096 A 
ATOM      5  C   UNL d   1       0.355  28.595   9.894  0.00  0.00     0.090 A 
ATOM      6  C   UNL d   1      -1.106  26.202   8.644  0.00  0.00     0.119 A 
ATOM      7  C   UNL d   1      -0.783  27.932   8.666  0.00  0.00     0.190 A 
ATOM      8  C   UNL d   1       0.128  25.912  10.190  0.00  0.00     0.078 A 
ATOM      9  C   UNL d   1      -0.967  25.280   9.006  0.00  0.00     0.136 A 
ATOM     10  C   UNL d   1      -0.289  28.746   9.088  0.00  0.00     0.094 A 
ATOM     11  C   UNL d   1      -0.350  25.135   9.780  0.00  0.00     0.107 A 
ENDROOT
BRANCH   5  12
ATOM     12  C   UNL d   1       0.834  29.369  10.306  0.00  0.00     0.001 A 
ATOM     13  C   UNL d   1       0.340  30.002  10.902  0.00  0.00     0.053 A 
ATOM     14  C   UNL d   1       0.819  30.777  11.315  0.00  0.00     0.099 A 
ATOM     15  C   UNL d   1       1.793  30.917  11.133  0.00  0.00     0.101 A 
ATOM     16  C   UNL d   1       2.287  30.284  10.537  0.00  0.00     0.040 A 
ATOM     17  C   UNL d   1       1.807  29.510  10.124  0.00  0.00     0.017 A 
BRANCH  14  18
ATOM     18  O   UNL d   1       0.326  31.411  11.911  0.00  0.00    -0.358 OA
ATOM     19  H   UNL d   1      -0.233  31.260  12.130  0.00  0.00     0.217 HD
ENDBRANCH  14  18
BRANCH  15  20
ATOM     20  O   UNL d   1       2.272  31.691  11.545  0.00  0.00    -0.353 OA
ATOM     21  C   UNL d   1       3.267  31.760  11.473  0.00  0.00     0.210 C 
ENDBRANCH  15  20
ENDBRANCH   5  12
BRANCH   6  22
ATOM     22  O   UNL d   1      -1.723  26.347   7.870  0.00  0.00    -0.357 OA
ATOM     23  H   UNL d   1      -1.858  26.923   7.685  0.00  0.00     0.218 HD
ENDBRANCH   6  22
BRANCH  11  24
ATOM     24  O   UNL d   1      -0.211  24.214  10.143  0.00  0.00    -0.353 OA
ATOM     25  C   UNL d   1       0.384  24.073  10.934  0.00  0.00     0.210 C 
ENDBRANCH  11  24
BRANCH   9  26
ATOM     26  O   UNL d   1      -1.445  24.504   8.596  0.00  0.00    -0.351 OA
ATOM     27  C   UNL d   1      -1.092  24.085   7.759  0.00  0.00     0.210 C 
ENDBRANCH   9  26
TORSDOF 6
ENDMDL
MODEL 2
REMARK VINA RESULT:    -9.078      2.586      3.718
REMARK INTER + INTRA:          -6.612
REMARK INTER:                 -11.662
REMARK INTRA:                   5.050
REMARK UNBOUND:                 5.120
REMARK  6 active torsions:
REMARK  status: ('A' for Active; 'I' for Inactive)
REMARK    1  A    between atoms: O_2  and  C_15 
REMARK    2  A    between atoms: O_3  and  C_17 
REMARK    3  A    between atoms: O_4  and  C_11 
REMARK    4  A    between atoms: O_6  and  C_22 
REMARK    5  A    between atoms: O_7  and  C_20 
REMARK    6  A    between atoms: C_10  and  C_13 
ROOT
ATOM      1  O   UNL d   1      -0.504  24.841   9.993  0.00  0.00    -0.309 OA
ATOM      2  O   UNL d   1      -1.144  24.779   6.992  0.00  0.00    -0.287 OA
ATOM      3  C   UNL d   1      -0.449  24.008   8.425  0.00  0.00     0.084 A 
ATOM      4  C   UNL d   1      -0.239  24.024   9.403  0.00  0.00     0.096 A 
ATOM      5  C   UNL d   1      -0.994  25.651   9.559  0.00  0.00     0.090 A 
ATOM      6  C   UNL d   1      -0.189  23.217   7.871  0.00  0.00     0.119 A 
ATOM      7  C   UNL d   1      -0.939  24.807   7.971  0.00  0.00     0.190 A 
ATOM      8  C   UNL d   1       0.231  23.250   9.826  0.00  0.00     0.078 A 
ATOM      9  C   UNL d   1       0.281  22.442   8.295  0.00  0.00     0.136 A 
ATOM     10  C   UNL d   1      -1.213  25.634   8.540  0.00  0.00     0.094 A 
ATOM     11  C   UNL d   1       0.491  22.459   9.272  0.00  0.00     0.107 A 
ENDROOT
BRANCH   5  12
ATOM     12  C   UNL d   1      -1.252  26.440  10.116  0.00  0.00     0.001 A 
ATOM     13  C   UNL d   1      -2.053  26.390  10.713  0.00  0.00     0.053 A 
ATOM     14  C   UNL d   1      -2.312  27.179  11.270  0.00  0.00     0.099 A 
ATOM     15  C   UNL d   1      -1.770  28.018  11.230  0.00  0.00     0.101 A 
ATOM     16  C   UNL d   1      -0.969  28.069  10.633  0.00  0.00     0.040 A 
ATOM     17  C   UNL d   1      -0.711  27.280  10.076  0.00  0.00     0.017 A 
BRANCH  14  18
ATOM     18  O   UNL d   1      -3.113  27.129  11.867  0.00  0.00    -0.358 OA
ATOM     19  H   UNL d   1      -3.476  27.625  11.942  0.00  0.00     0.217 HD
ENDBRANCH  14  18
BRANCH  15  20
ATOM     20  O   UNL d   1      -2.029  28.807  11.787  0.00  0.00    -0.353 OA
ATOM     21  C   UNL d   1      -1.668  29.714  11.569  0.00  0.00     0.210 C 
ENDBRANCH  15  20
ENDBRANCH   5  12
BRANCH   6  22
ATOM     22  O   UNL d   1      -0.400  23.200   6.894  0.00  0.00    -0.357 OA
ATOM     23  H   UNL d   1      -0.930  23.445   6.687  0.00  0.00     0.218 HD
ENDBRANCH   6  22
BRANCH  11  24
ATOM     24  O   UNL d   1       0.961  21.685   9.696  0.00  0.00    -0.353 OA
ATOM     25  C   UNL d   1       0.925  21.559  10.687  0.00  0.00     0.210 C 
ENDBRANCH  11  24
BRANCH   9  26
ATOM     26  O   UNL d   1       0.541  21.652   7.741  0.00  0.00    -0.351 OA
ATOM     27  C   UNL d   1       1.333  21.706   7.132  0.00  0.00     0.210 C 
ENDBRANCH   9  26
TORSDOF 6
ENDMDL
MODEL 3
REMARK VINA RESULT:    -9.051      1.569      5.824
REMARK INTER + INTRA:          -6.577
REMARK INTER:                 -11.655
REMARK INTRA:                   5.078
REMARK UNBOUND:                 5.120
REMARK  6 active torsions:
REMARK  status: ('A' for Active; 'I' for Inactive)
REMARK    1  A    between atoms: O_2  and  C_15 
REMARK    2  A    between atoms: O_3  and  C_17 
REMARK    3  A    between atoms: O_4  and  C_11 
REMARK    4  A    between atoms: O_6  and  C_22 
REMARK    5  A    between atoms: O_7  and  C_20 
REMARK    6  A    between atoms: C_10  and  C_13 
ROOT
ATOM      1  O   UNL d   1       0.366  26.795  10.244  0.00  0.00    -0.309 OA
ATOM      2  O   UNL d   1      -2.375  27.821  11.167  0.00  0.00    -0.287 OA
ATOM      3  C   UNL d   1      -0.681  28.133  10.764  0.00  0.00     0.084 A 
ATOM      4  C   UNL d   1       0.214  27.802  10.464  0.00  0.00     0.096 A 
ATOM      5  C   UNL d   1      -0.425  26.123  10.339  0.00  0.00     0.090 A 
ATOM      6  C   UNL d   1      -0.811  29.102  10.971  0.00  0.00     0.119 A 
ATOM      7  C   UNL d   1      -1.485  27.479  10.866  0.00  0.00     0.190 A 
ATOM      8  C   UNL d   1       0.978  28.440  10.370  0.00  0.00     0.078 A 
ATOM      9  C   UNL d   1      -0.048  29.741  10.878  0.00  0.00     0.136 A 
ATOM     10  C   UNL d   1      -1.357  26.468  10.652  0.00  0.00     0.094 A 
ATOM     11  C   UNL d   1       0.847  29.410  10.577  0.00  0.00     0.107 A 
ENDROOT
BRANCH   5  12
ATOM     12  C   UNL d   1      -0.291  25.155  10.131  0.00  0.00     0.001 A 
ATOM     13  C   UNL d   1      -0.722  24.753   9.323  0.00  0.00     0.053 A 
ATOM     14  C   UNL d   1      -0.588  23.784   9.114  0.00  0.00     0.099 A 
ATOM     15  C   UNL d   1      -0.023  23.217   9.714  0.00  0.00     0.101 A 
ATOM     16  C   UNL d   1       0.408  23.619  10.522  0.00  0.00     0.040 A 
ATOM     17  C   UNL d   1       0.274  24.588  10.730  0.00  0.00     0.017 A 
BRANCH  14  18
ATOM     18  O   UNL d   1      -1.019  23.381   8.307  0.00  0.00    -0.358 OA
ATOM     19  H   UNL d   1      -1.636  23.372   8.256  0.00  0.00     0.217 HD
ENDBRANCH  14  18
BRANCH  15  20
ATOM     20  O   UNL d   1       0.111  22.249   9.506  0.00  0.00    -0.353 OA
ATOM     21  C   UNL d   1       0.618  21.666  10.141  0.00  0.00     0.210 C 
ENDBRANCH  15  20
ENDBRANCH   5  12
BRANCH   6  22
ATOM     22  O   UNL d   1      -1.706  29.433  11.272  0.00  0.00    -0.357 OA
ATOM     23  H   UNL d   1      -1.764  30.007  11.498  0.00  0.00     0.218 HD
ENDBRANCH   6  22
BRANCH  11  24
ATOM     24  O   UNL d   1       1.611  30.048  10.484  0.00  0.00    -0.353 OA
ATOM     25  C   UNL d   1       2.492  29.727  10.137  0.00  0.00     0.210 C 
ENDBRANCH  11  24
BRANCH   9  26
ATOM     26  O   UNL d   1      -0.178  30.710  11.085  0.00  0.00    -0.351 OA
ATOM     27  C   UNL d   1      -0.041  31.045  12.017  0.00  0.00     0.210 C 
ENDBRANCH   9  26
TORSDOF 6
ENDMDL
MODEL 4
REMARK VINA RESULT:    -8.830      1.152      5.859
REMARK INTER + INTRA:          -6.291
REMARK INTER:                 -11.457
REMARK INTRA:                   5.166
REMARK UNBOUND:                 5.120
REMARK  6 active torsions:
REMARK  status: ('A' for Active; 'I' for Inactive)
REMARK    1  A    between atoms: O_2  and  C_15 
REMARK    2  A    between atoms: O_3  and  C_17 
REMARK    3  A    between atoms: O_4  and  C_11 
REMARK    4  A    between atoms: O_6  and  C_22 
REMARK    5  A    between atoms: O_7  and  C_20 
REMARK    6  A    between atoms: C_10  and  C_13 
ROOT
ATOM      1  O   UNL d   1       1.385  28.514  10.137  0.00  0.00    -0.309 OA
ATOM      2  O   UNL d   1      -0.011  30.913  11.446  0.00  0.00    -0.287 OA
ATOM      3  C   UNL d   1       1.474  30.105  10.922  0.00  0.00     0.084 A 
ATOM      4  C   UNL d   1       1.932  29.325  10.496  0.00  0.00     0.096 A 
ATOM      5  C   UNL d   1       0.347  28.516  10.223  0.00  0.00     0.090 A 
ATOM      6  C   UNL d   1       2.012  30.877  11.262  0.00  0.00     0.119 A 
ATOM      7  C   UNL d   1       0.437  30.128  11.018  0.00  0.00     0.190 A 
ATOM      8  C   UNL d   1       2.928  29.317  10.410  0.00  0.00     0.078 A 
ATOM      9  C   UNL d   1       3.008  30.868  11.176  0.00  0.00     0.136 A 
ATOM     10  C   UNL d   1      -0.130  29.329  10.667  0.00  0.00     0.094 A 
ATOM     11  C   UNL d   1       3.466  30.088  10.750  0.00  0.00     0.107 A 
ENDROOT
BRANCH   5  12
ATOM     12  C   UNL d   1      -0.187  27.743   9.882  0.00  0.00     0.001 A 
ATOM     13  C   UNL d   1      -0.690  27.824   9.021  0.00  0.00     0.053 A 
ATOM     14  C   UNL d   1      -1.225  27.052   8.679  0.00  0.00     0.099 A 
ATOM     15  C   UNL d   1      -1.257  26.198   9.199  0.00  0.00     0.101 A 
ATOM     16  C   UNL d   1      -0.755  26.117  10.060  0.00  0.00     0.040 A 
ATOM     17  C   UNL d   1      -0.220  26.889  10.401  0.00  0.00     0.017 A 
BRANCH  14  18
ATOM     18  O   UNL d   1      -1.728  27.132   7.819  0.00  0.00    -0.358 OA
ATOM     19  H   UNL d   1      -1.512  27.494   7.365  0.00  0.00     0.217 HD
ENDBRANCH  14  18
BRANCH  15  20
ATOM     20  O   UNL d   1      -1.792  25.425   8.858  0.00  0.00    -0.353 OA
ATOM     21  C   UNL d   1      -1.455  24.491   8.977  0.00  0.00     0.210 C 
ENDBRANCH  15  20
ENDBRANCH   5  12
BRANCH   6  22
ATOM     22  O   UNL d   1       1.553  31.657  11.688  0.00  0.00    -0.357 OA
ATOM     23  H   UNL d   1       1.763  31.884  12.226  0.00  0.00     0.218 HD
ENDBRANCH   6  22
BRANCH  11  24
ATOM     24  O   UNL d   1       4.462  30.079  10.664  0.00  0.00    -0.353 OA
ATOM     25  C   UNL d   1       4.925  29.277  10.285  0.00  0.00     0.210 C 
ENDBRANCH  11  24
BRANCH   9  26
ATOM     26  O   UNL d   1       3.546  31.639  11.516  0.00  0.00    -0.351 OA
ATOM     27  C   UNL d   1       3.873  31.643  12.461  0.00  0.00     0.210 C 
ENDBRANCH   9  26
TORSDOF 6
ENDMDL
MODEL 5
REMARK VINA RESULT:    -8.570      1.668      5.907
REMARK INTER + INTRA:          -5.954
REMARK INTER:                 -11.100
REMARK INTRA:                   5.146
REMARK UNBOUND:                 5.120
REMARK  6 active torsions:
REMARK  status: ('A' for Active; 'I' for Inactive)
REMARK    1  A    between atoms: O_2  and  C_15 
REMARK    2  A    between atoms: O_3  and  C_17 
REMARK    3  A    between atoms: O_4  and  C_11 
REMARK    4  A    between atoms: O_6  and  C_22 
REMARK    5  A    between atoms: O_7  and  C_20 
REMARK    6  A    between atoms: C_10  and  C_13 
ROOT
ATOM      1  O   UNL d   1      -0.542  26.639  10.279  0.00  0.00    -0.309 OA
ATOM      2  O   UNL d   1       2.262  27.887  10.296  0.00  0.00    -0.287 OA
ATOM      3  C   UNL d   1       0.506  28.066  10.427  0.00  0.00     0.084 A 
ATOM      4  C   UNL d   1      -0.409  27.663  10.422  0.00  0.00     0.096 A 
ATOM      5  C   UNL d   1       0.290  26.028  10.140  0.00  0.00     0.090 A 
ATOM      6  C   UNL d   1       0.619  29.050  10.565  0.00  0.00     0.119 A 
ATOM      7  C   UNL d   1       1.352  27.473  10.290  0.00  0.00     0.190 A 
ATOM      8  C   UNL d   1      -1.212  28.244  10.556  0.00  0.00     0.078 A 
ATOM      9  C   UNL d   1      -0.184  29.631  10.699  0.00  0.00     0.136 A 
ATOM     10  C   UNL d   1       1.243  26.448  10.145  0.00  0.00     0.094 A 
ATOM     11  C   UNL d   1      -1.099  29.228  10.694  0.00  0.00     0.107 A 
ENDROOT
BRANCH   5  12
ATOM     12  C   UNL d   1       0.174  25.044  10.002  0.00  0.00     0.001 A 
ATOM     13  C   UNL d   1      -0.395  24.709   9.251  0.00  0.00     0.053 A 
ATOM     14  C   UNL d   1      -0.511  23.725   9.112  0.00  0.00     0.099 A 
ATOM     15  C   UNL d   1      -0.059  23.077   9.725  0.00  0.00     0.101 A 
ATOM     16  C   UNL d   1       0.510  23.413  10.477  0.00  0.00     0.040 A 
ATOM     17  C   UNL d   1       0.625  24.396  10.615  0.00  0.00     0.017 A 
BRANCH  14  18
ATOM     18  O   UNL d   1      -1.079  23.388   8.361  0.00  0.00    -0.358 OA
ATOM     19  H   UNL d   1      -1.099  23.697   7.824  0.00  0.00     0.217 HD
ENDBRANCH  14  18
BRANCH  15  20
ATOM     20  O   UNL d   1      -0.175  22.094   9.588  0.00  0.00    -0.353 OA
ATOM     21  C   UNL d   1       0.440  21.449  10.041  0.00  0.00     0.210 C 
ENDBRANCH  15  20
ENDBRANCH   5  12
BRANCH   6  22
ATOM     22  O   UNL d   1       1.534  29.453  10.570  0.00  0.00    -0.357 OA
ATOM     23  H   UNL d   1       1.645  29.967  10.899  0.00  0.00     0.218 HD
ENDBRANCH   6  22
BRANCH  11  24
ATOM     24  O   UNL d   1      -1.902  29.809  10.827  0.00  0.00    -0.353 OA
ATOM     25  C   UNL d   1      -2.806  29.484  10.549  0.00  0.00     0.210 C 
ENDBRANCH  11  24
BRANCH   9  26
ATOM     26  O   UNL d   1      -0.072  30.615  10.837  0.00  0.00    -0.351 OA
ATOM     27  C   UNL d   1       0.191  30.967  11.735  0.00  0.00     0.210 C 
ENDBRANCH   9  26
TORSDOF 6
ENDMDL
