MODEL 1
REMARK VINA RESULT:    -7.646      0.000      0.000
REMARK INTER + INTRA:          -7.270
REMARK INTER:                  -8.606
REMARK INTRA:                   1.335
REMARK UNBOUND:                 1.270
REMARK  3 active torsions:
REMARK  status: ('A' for Active; 'I' for Inactive)
REMARK    1  A    between atoms: O_2  and  C_10 
REMARK    2  A    between atoms: O_4  and  C_13 
REMARK    3  A    between atoms: C_7  and  C_9 
ROOT
ATOM      1  O   UNL d   1       8.497  47.910  24.883  0.00  0.00    -0.309 OA
ATOM      2  O   UNL d   1       6.947  45.809  23.405  0.00  0.00    -0.287 OA
ATOM      3  C   UNL d   1       8.140  47.065  23.414  0.00  0.00     0.081 A 
ATOM      4  C   UNL d   1       8.657  47.766  23.906  0.00  0.00     0.095 A 
ATOM      5  C   UNL d   1       7.822  47.354  25.367  0.00  0.00     0.090 A 
ATOM      6  C   UNL d   1       7.464  46.510  23.898  0.00  0.00     0.190 A 
ATOM      7  C   UNL d   1       8.295  46.904  22.397  0.00  0.00     0.085 A 
ATOM      8  C   UNL d   1       7.305  46.654  24.874  0.00  0.00     0.094 A 
ATOM      9  C   UNL d   1       9.364  48.353  23.416  0.00  0.00     0.075 A 
ATOM     10  C   UNL d   1       9.535  48.208  22.399  0.00  0.00     0.071 A 
ATOM     11  C   UNL d   1       8.997  47.479  21.886  0.00  0.00     0.074 A 
ENDROOT
BRANCH   5  12
ATOM     12  C   UNL d   1       7.662  47.499  26.344  0.00  0.00    -0.002 A 
ATOM     13  C   UNL d   1       7.822  48.399  26.749  0.00  0.00     0.014 A 
ATOM     14  C   UNL d   1       7.663  48.543  27.725  0.00  0.00     0.001 A 
ATOM     15  C   UNL d   1       7.344  47.787  28.297  0.00  0.00     0.000 A 
ATOM     16  C   UNL d   1       7.184  46.887  27.892  0.00  0.00     0.001 A 
ATOM     17  C   UNL d   1       7.343  46.743  26.915  0.00  0.00     0.014 A 
ENDBRANCH   5  12
BRANCH   7  18
ATOM     18  O   UNL d   1       7.773  46.201  21.914  0.00  0.00    -0.360 OA
ATOM     19  H   UNL d   1       7.991  45.622  21.879  0.00  0.00     0.217 HD
ENDBRANCH   7  18
BRANCH  10  20
ATOM     20  O   UNL d   1      10.212  48.766  21.919  0.00  0.00    -0.361 OA
ATOM     21  H   UNL d   1      10.043  49.303  21.659  0.00  0.00     0.217 HD
ENDBRANCH  10  20
TORSDOF 3
ENDMDL
MODEL 2
REMARK VINA RESULT:    -7.618      2.491      4.116
REMARK INTER + INTRA:          -7.239
REMARK INTER:                  -8.352
REMARK INTRA:                   1.114
REMARK UNBOUND:                 1.270
REMARK  3 active torsions:
REMARK  status: ('A' for Active; 'I' for Inactive)
REMARK    1  A    between atoms: O_2  and  C_10 
REMARK    2  A    between atoms: O_4  and  C_13 
REMARK    3  A    between atoms: C_7  and  C_9 
ROOT
ATOM      1  O   UNL d   1       6.606  46.096  27.431  0.00  0.00    -0.309 OA
ATOM      2  O   UNL d   1       7.586  46.228  24.598  0.00  0.00    -0.287 OA
ATOM      3  C   UNL d   1       7.412  46.955  26.161  0.00  0.00     0.081 A 
ATOM      4  C   UNL d   1       7.086  46.911  27.105  0.00  0.00     0.095 A 
ATOM      5  C   UNL d   1       6.453  45.325  26.812  0.00  0.00     0.090 A 
ATOM      6  C   UNL d   1       7.259  46.184  25.543  0.00  0.00     0.190 A 
ATOM      7  C   UNL d   1       7.913  47.797  25.808  0.00  0.00     0.085 A 
ATOM      8  C   UNL d   1       6.779  45.370  25.868  0.00  0.00     0.094 A 
ATOM      9  C   UNL d   1       7.238  47.705  27.762  0.00  0.00     0.075 A 
ATOM     10  C   UNL d   1       7.737  48.557  27.430  0.00  0.00     0.071 A 
ATOM     11  C   UNL d   1       8.077  48.603  26.447  0.00  0.00     0.074 A 
ENDROOT
BRANCH   5  12
ATOM     12  C   UNL d   1       5.973  44.511  27.138  0.00  0.00    -0.002 A 
ATOM     13  C   UNL d   1       5.137  44.207  26.681  0.00  0.00     0.014 A 
ATOM     14  C   UNL d   1       4.658  43.392  27.006  0.00  0.00     0.001 A 
ATOM     15  C   UNL d   1       5.014  42.881  27.789  0.00  0.00     0.000 A 
ATOM     16  C   UNL d   1       5.850  43.185  28.246  0.00  0.00     0.001 A 
ATOM     17  C   UNL d   1       6.329  44.000  27.920  0.00  0.00     0.014 A 
ENDBRANCH   5  12
BRANCH   7  18
ATOM     18  O   UNL d   1       8.235  47.830  24.862  0.00  0.00    -0.360 OA
ATOM     19  H   UNL d   1       7.838  47.737  24.396  0.00  0.00     0.217 HD
ENDBRANCH   7  18
BRANCH  10  20
ATOM     20  O   UNL d   1       7.888  49.326  28.052  0.00  0.00    -0.361 OA
ATOM     21  H   UNL d   1       8.339  49.297  28.476  0.00  0.00     0.217 HD
ENDBRANCH  10  20
TORSDOF 3
ENDMDL
MODEL 3
REMARK VINA RESULT:    -7.592      2.729      4.817
REMARK INTER + INTRA:          -7.210
REMARK INTER:                  -8.290
REMARK INTRA:                   1.080
REMARK UNBOUND:                 1.270
REMARK  3 active torsions:
REMARK  status: ('A' for Active; 'I' for Inactive)
REMARK    1  A    between atoms: O_2  and  C_10 
REMARK    2  A    between atoms: O_4  and  C_13 
REMARK    3  A    between atoms: C_7  and  C_9 
ROOT
ATOM      1  O   UNL d   1       6.921  46.182  25.627  0.00  0.00    -0.309 OA
ATOM      2  O   UNL d   1       6.768  45.096  28.419  0.00  0.00    -0.287 OA
ATOM      3  C   UNL d   1       7.112  46.402  27.334  0.00  0.00     0.081 A 
ATOM      4  C   UNL d   1       7.163  46.764  26.403  0.00  0.00     0.095 A 
ATOM      5  C   UNL d   1       6.629  45.238  25.781  0.00  0.00     0.090 A 
ATOM      6  C   UNL d   1       6.819  45.458  27.488  0.00  0.00     0.190 A 
ATOM      7  C   UNL d   1       7.360  46.996  28.152  0.00  0.00     0.085 A 
ATOM      8  C   UNL d   1       6.578  44.876  26.712  0.00  0.00     0.094 A 
ATOM      9  C   UNL d   1       7.465  47.745  26.226  0.00  0.00     0.075 A 
ATOM     10  C   UNL d   1       7.718  48.357  27.030  0.00  0.00     0.071 A 
ATOM     11  C   UNL d   1       7.665  47.980  27.999  0.00  0.00     0.074 A 
ENDROOT
BRANCH   5  12
ATOM     12  C   UNL d   1       6.388  44.656  25.005  0.00  0.00    -0.002 A 
ATOM     13  C   UNL d   1       5.456  44.306  24.913  0.00  0.00     0.014 A 
ATOM     14  C   UNL d   1       5.214  43.724  24.136  0.00  0.00     0.001 A 
ATOM     15  C   UNL d   1       5.905  43.492  23.451  0.00  0.00     0.000 A 
ATOM     16  C   UNL d   1       6.838  43.842  23.543  0.00  0.00     0.001 A 
ATOM     17  C   UNL d   1       7.079  44.424  24.320  0.00  0.00     0.014 A 
ENDBRANCH   5  12
BRANCH   7  18
ATOM     18  O   UNL d   1       7.305  46.624  29.079  0.00  0.00    -0.360 OA
ATOM     19  H   UNL d   1       7.715  46.199  29.266  0.00  0.00     0.217 HD
ENDBRANCH   7  18
BRANCH  10  20
ATOM     20  O   UNL d   1       8.010  49.300  26.871  0.00  0.00    -0.361 OA
ATOM     21  H   UNL d   1       8.614  49.438  26.850  0.00  0.00     0.217 HD
ENDBRANCH  10  20
TORSDOF 3
ENDMDL
MODEL 4
REMARK VINA RESULT:    -7.559      2.958      4.552
REMARK INTER + INTRA:          -7.173
REMARK INTER:                  -8.444
REMARK INTRA:                   1.271
REMARK UNBOUND:                 1.270
REMARK  3 active torsions:
REMARK  status: ('A' for Active; 'I' for Inactive)
REMARK    1  A    between atoms: O_2  and  C_10 
REMARK    2  A    between atoms: O_4  and  C_13 
REMARK    3  A    between atoms: C_7  and  C_9 
ROOT
ATOM      1  O   UNL d   1       6.232  46.040  26.044  0.00  0.00    -0.309 OA
ATOM      2  O   UNL d   1       6.559  43.990  28.210  0.00  0.00    -0.287 OA
ATOM      3  C   UNL d   1       5.923  44.453  26.667  0.00  0.00     0.081 A 
ATOM      4  C   UNL d   1       5.814  45.137  25.945  0.00  0.00     0.095 A 
ATOM      5  C   UNL d   1       6.758  46.260  26.865  0.00  0.00     0.090 A 
ATOM      6  C   UNL d   1       6.450  44.674  27.488  0.00  0.00     0.190 A 
ATOM      7  C   UNL d   1       5.494  43.509  26.578  0.00  0.00     0.085 A 
ATOM      8  C   UNL d   1       6.868  45.577  27.587  0.00  0.00     0.094 A 
ATOM      9  C   UNL d   1       5.268  44.922  25.084  0.00  0.00     0.075 A 
ATOM     10  C   UNL d   1       4.831  43.984  24.973  0.00  0.00     0.071 A 
ATOM     11  C   UNL d   1       4.944  43.272  25.725  0.00  0.00     0.074 A 
ENDROOT
BRANCH   5  12
ATOM     12  C   UNL d   1       7.176  47.163  26.964  0.00  0.00    -0.002 A 
ATOM     13  C   UNL d   1       7.549  47.632  26.163  0.00  0.00     0.014 A 
ATOM     14  C   UNL d   1       7.966  48.535  26.262  0.00  0.00     0.001 A 
ATOM     15  C   UNL d   1       8.011  48.970  27.162  0.00  0.00     0.000 A 
ATOM     16  C   UNL d   1       7.638  48.501  27.962  0.00  0.00     0.001 A 
ATOM     17  C   UNL d   1       7.221  47.597  27.863  0.00  0.00     0.014 A 
ENDBRANCH   5  12
BRANCH   7  18
ATOM     18  O   UNL d   1       5.610  42.834  27.306  0.00  0.00    -0.360 OA
ATOM     19  H   UNL d   1       5.783  42.255  27.167  0.00  0.00     0.217 HD
ENDBRANCH   7  18
BRANCH  10  20
ATOM     20  O   UNL d   1       4.305  43.767  24.151  0.00  0.00    -0.361 OA
ATOM     21  H   UNL d   1       3.685  43.772  24.169  0.00  0.00     0.217 HD
ENDBRANCH  10  20
TORSDOF 3
ENDMDL
MODEL 5
REMARK VINA RESULT:    -7.514      1.472      4.475
REMARK INTER + INTRA:          -7.122
REMARK INTER:                  -8.164
REMARK INTRA:                   1.041
REMARK UNBOUND:                 1.270
REMARK  3 active torsions:
REMARK  status: ('A' for Active; 'I' for Inactive)
REMARK    1  A    between atoms: O_2  and  C_10 
REMARK    2  A    between atoms: O_4  and  C_13 
REMARK    3  A    between atoms: C_7  and  C_9 
ROOT
ATOM      1  O   UNL d   1       8.175  47.815  24.967  0.00  0.00    -0.309 OA
ATOM      2  O   UNL d   1       7.082  45.228  26.021  0.00  0.00    -0.287 OA
ATOM      3  C   UNL d   1       7.539  46.879  26.278  0.00  0.00     0.081 A 
ATOM      4  C   UNL d   1       7.903  47.741  25.927  0.00  0.00     0.095 A 
ATOM      5  C   UNL d   1       8.083  47.027  24.359  0.00  0.00     0.090 A 
ATOM      6  C   UNL d   1       7.446  46.090  25.670  0.00  0.00     0.190 A 
ATOM      7  C   UNL d   1       7.251  46.787  27.275  0.00  0.00     0.085 A 
ATOM      8  C   UNL d   1       7.719  46.164  24.711  0.00  0.00     0.094 A 
ATOM      9  C   UNL d   1       8.005  48.571  26.548  0.00  0.00     0.075 A 
ATOM     10  C   UNL d   1       7.724  48.502  27.548  0.00  0.00     0.071 A 
ATOM     11  C   UNL d   1       7.344  47.604  27.914  0.00  0.00     0.074 A 
ENDROOT
BRANCH   5  12
ATOM     12  C   UNL d   1       8.355  47.101  23.400  0.00  0.00    -0.002 A 
ATOM     13  C   UNL d   1       7.659  47.109  22.682  0.00  0.00     0.014 A 
ATOM     14  C   UNL d   1       7.931  47.183  21.722  0.00  0.00     0.001 A 
ATOM     15  C   UNL d   1       8.899  47.249  21.481  0.00  0.00     0.000 A 
ATOM     16  C   UNL d   1       9.595  47.241  22.199  0.00  0.00     0.001 A 
ATOM     17  C   UNL d   1       9.323  47.167  23.158  0.00  0.00     0.014 A 
ENDBRANCH   5  12
BRANCH   7  18
ATOM     18  O   UNL d   1       6.888  45.919  27.615  0.00  0.00    -0.360 OA
ATOM     19  H   UNL d   1       6.284  45.792  27.558  0.00  0.00     0.217 HD
ENDBRANCH   7  18
BRANCH  10  20
ATOM     20  O   UNL d   1       7.818  49.293  28.153  0.00  0.00    -0.361 OA
ATOM     21  H   UNL d   1       8.124  49.238  28.690  0.00  0.00     0.217 HD
ENDBRANCH  10  20
TORSDOF 3
ENDMDL
