MODEL 1
REMARK VINA RESULT:    -7.595      0.000      0.000
REMARK INTER + INTRA:          -7.320
REMARK INTER:                  -9.595
REMARK INTRA:                   2.274
REMARK UNBOUND:                 1.828
REMARK  5 active torsions:
REMARK  status: ('A' for Active; 'I' for Inactive)
REMARK    1  A    between atoms: O_2  and  C_13 
REMARK    2  A    between atoms: O_3  and  C_19 
REMARK    3  A    between atoms: O_5  and  C_17 
REMARK    4  A    between atoms: O_6  and  C_21 
REMARK    5  A    between atoms: C_8  and  C_10 
ROOT
ATOM      1  O   UNL d   1      10.534  45.462  38.464  0.00  0.00    -0.309 OA
ATOM      2  O   UNL d   1      10.246  47.434  40.706  0.00  0.00    -0.287 OA
ATOM      3  C   UNL d   1      11.217  46.686  39.482  0.00  0.00     0.081 A 
ATOM      4  C   UNL d   1       9.660  45.553  38.940  0.00  0.00     0.090 A 
ATOM      5  C   UNL d   1      11.313  46.029  38.734  0.00  0.00     0.095 A 
ATOM      6  C   UNL d   1      10.342  46.777  39.959  0.00  0.00     0.190 A 
ATOM      7  C   UNL d   1       9.564  46.210  39.688  0.00  0.00     0.094 A 
ATOM      8  C   UNL d   1      12.018  47.282  39.775  0.00  0.00     0.085 A 
ATOM      9  C   UNL d   1      12.217  45.922  38.228  0.00  0.00     0.075 A 
ATOM     10  C   UNL d   1      13.032  46.509  38.505  0.00  0.00     0.071 A 
ATOM     11  C   UNL d   1      12.932  47.193  39.283  0.00  0.00     0.074 A 
ENDROOT
BRANCH   4  12
ATOM     12  C   UNL d   1       8.882  44.987  38.670  0.00  0.00     0.001 A 
ATOM     13  C   UNL d   1       8.145  44.805  39.321  0.00  0.00     0.054 A 
ATOM     14  C   UNL d   1       7.366  44.239  39.050  0.00  0.00     0.102 A 
ATOM     15  C   UNL d   1       7.325  43.854  38.128  0.00  0.00     0.099 A 
ATOM     16  C   UNL d   1       8.062  44.035  37.477  0.00  0.00     0.040 A 
ATOM     17  C   UNL d   1       8.840  44.601  37.748  0.00  0.00     0.017 A 
BRANCH  14  18
ATOM     18  O   UNL d   1       6.630  44.057  39.702  0.00  0.00    -0.353 OA
ATOM     19  C   UNL d   1       6.324  44.777  40.325  0.00  0.00     0.210 C 
ENDBRANCH  14  18
BRANCH  15  20
ATOM     20  O   UNL d   1       6.547  43.287  37.858  0.00  0.00    -0.358 OA
ATOM     21  H   UNL d   1       6.638  42.701  37.678  0.00  0.00     0.217 HD
ENDBRANCH  15  20
ENDBRANCH   4  12
BRANCH   8  22
ATOM     22  O   UNL d   1      11.911  47.936  40.524  0.00  0.00    -0.360 OA
ATOM     23  H   UNL d   1      11.357  48.192  40.635  0.00  0.00     0.217 HD
ENDBRANCH   8  22
BRANCH  10  24
ATOM     24  O   UNL d   1      13.905  46.415  38.025  0.00  0.00    -0.361 OA
ATOM     25  H   UNL d   1      14.071  46.834  37.600  0.00  0.00     0.217 HD
ENDBRANCH  10  24
TORSDOF 5
ENDMDL
MODEL 2
REMARK VINA RESULT:    -7.417     13.015     14.612
REMARK INTER + INTRA:          -7.107
REMARK INTER:                  -9.173
REMARK INTRA:                   2.066
REMARK UNBOUND:                 1.828
REMARK  5 active torsions:
REMARK  status: ('A' for Active; 'I' for Inactive)
REMARK    1  A    between atoms: O_2  and  C_13 
REMARK    2  A    between atoms: O_3  and  C_19 
REMARK    3  A    between atoms: O_5  and  C_17 
REMARK    4  A    between atoms: O_6  and  C_21 
REMARK    5  A    between atoms: C_8  and  C_10 
ROOT
ATOM      1  O   UNL d   1       7.602  46.153  25.310  0.00  0.00    -0.309 OA
ATOM      2  O   UNL d   1       7.732  48.408  27.284  0.00  0.00    -0.287 OA
ATOM      3  C   UNL d   1       7.428  46.740  26.930  0.00  0.00     0.081 A 
ATOM      4  C   UNL d   1       7.862  47.069  25.006  0.00  0.00     0.090 A 
ATOM      5  C   UNL d   1       7.385  45.988  26.272  0.00  0.00     0.095 A 
ATOM      6  C   UNL d   1       7.689  47.656  26.626  0.00  0.00     0.190 A 
ATOM      7  C   UNL d   1       7.906  47.821  25.664  0.00  0.00     0.094 A 
ATOM      8  C   UNL d   1       7.205  46.584  27.935  0.00  0.00     0.085 A 
ATOM      9  C   UNL d   1       7.115  45.028  26.574  0.00  0.00     0.075 A 
ATOM     10  C   UNL d   1       6.888  44.849  27.575  0.00  0.00     0.071 A 
ATOM     11  C   UNL d   1       6.933  45.632  28.260  0.00  0.00     0.074 A 
ENDROOT
BRANCH   4  12
ATOM     12  C   UNL d   1       8.079  47.233  24.044  0.00  0.00     0.001 A 
ATOM     13  C   UNL d   1       8.882  47.776  23.798  0.00  0.00     0.054 A 
ATOM     14  C   UNL d   1       9.099  47.941  22.836  0.00  0.00     0.102 A 
ATOM     15  C   UNL d   1       8.513  47.562  22.119  0.00  0.00     0.099 A 
ATOM     16  C   UNL d   1       7.710  47.019  22.365  0.00  0.00     0.040 A 
ATOM     17  C   UNL d   1       7.493  46.855  23.327  0.00  0.00     0.017 A 
BRANCH  14  18
ATOM     18  O   UNL d   1       9.902  48.483  22.590  0.00  0.00    -0.353 OA
ATOM     19  C   UNL d   1      10.345  49.060  23.276  0.00  0.00     0.210 C 
ENDBRANCH  14  18
BRANCH  15  20
ATOM     20  O   UNL d   1       8.730  47.726  21.157  0.00  0.00    -0.358 OA
ATOM     21  H   UNL d   1       9.312  47.859  20.989  0.00  0.00     0.217 HD
ENDBRANCH  15  20
ENDBRANCH   4  12
BRANCH   8  22
ATOM     22  O   UNL d   1       7.252  47.343  28.584  0.00  0.00    -0.360 OA
ATOM     23  H   UNL d   1       7.326  47.229  29.189  0.00  0.00     0.217 HD
ENDBRANCH   8  22
BRANCH  10  24
ATOM     24  O   UNL d   1       6.628  43.931  27.875  0.00  0.00    -0.361 OA
ATOM     25  H   UNL d   1       6.894  43.434  27.617  0.00  0.00     0.217 HD
ENDBRANCH  10  24
TORSDOF 5
ENDMDL
MODEL 3
REMARK VINA RESULT:    -7.370      1.073      5.493
REMARK INTER + INTRA:          -7.049
REMARK INTER:                  -9.261
REMARK INTRA:                   2.212
REMARK UNBOUND:                 1.828
REMARK  5 active torsions:
REMARK  status: ('A' for Active; 'I' for Inactive)
REMARK    1  A    between atoms: O_2  and  C_13 
REMARK    2  A    between atoms: O_3  and  C_19 
REMARK    3  A    between atoms: O_5  and  C_17 
REMARK    4  A    between atoms: O_6  and  C_21 
REMARK    5  A    between atoms: C_8  and  C_10 
ROOT
ATOM      1  O   UNL d   1       8.586  45.567  39.797  0.00  0.00    -0.309 OA
ATOM      2  O   UNL d   1       8.628  43.887  37.312  0.00  0.00    -0.287 OA
ATOM      3  C   UNL d   1       7.804  44.452  38.727  0.00  0.00     0.081 A 
ATOM      4  C   UNL d   1       9.396  45.562  39.211  0.00  0.00     0.090 A 
ATOM      5  C   UNL d   1       7.790  45.012  39.555  0.00  0.00     0.095 A 
ATOM      6  C   UNL d   1       8.614  44.447  38.141  0.00  0.00     0.190 A 
ATOM      7  C   UNL d   1       9.410  45.002  38.382  0.00  0.00     0.094 A 
ATOM      8  C   UNL d   1       6.983  43.869  38.463  0.00  0.00     0.085 A 
ATOM      9  C   UNL d   1       6.954  45.028  40.176  0.00  0.00     0.075 A 
ATOM     10  C   UNL d   1       6.121  44.452  39.931  0.00  0.00     0.071 A 
ATOM     11  C   UNL d   1       6.136  43.869  39.069  0.00  0.00     0.074 A 
ENDROOT
BRANCH   4  12
ATOM     12  C   UNL d   1      10.192  46.117  39.453  0.00  0.00     0.001 A 
ATOM     13  C   UNL d   1      11.105  45.838  39.157  0.00  0.00     0.054 A 
ATOM     14  C   UNL d   1      11.901  46.393  39.399  0.00  0.00     0.102 A 
ATOM     15  C   UNL d   1      11.783  47.227  39.936  0.00  0.00     0.099 A 
ATOM     16  C   UNL d   1      10.870  47.507  40.232  0.00  0.00     0.040 A 
ATOM     17  C   UNL d   1      10.074  46.952  39.990  0.00  0.00     0.017 A 
BRANCH  14  18
ATOM     18  O   UNL d   1      12.814  46.113  39.103  0.00  0.00    -0.353 OA
ATOM     19  C   UNL d   1      12.919  45.384  38.426  0.00  0.00     0.210 C 
ENDBRANCH  14  18
BRANCH  15  20
ATOM     20  O   UNL d   1      12.579  47.783  40.178  0.00  0.00    -0.358 OA
ATOM     21  H   UNL d   1      12.930  47.626  40.665  0.00  0.00     0.217 HD
ENDBRANCH  15  20
ENDBRANCH   4  12
BRANCH   8  22
ATOM     22  O   UNL d   1       7.008  43.313  37.632  0.00  0.00    -0.360 OA
ATOM     23  H   UNL d   1       6.507  43.274  37.270  0.00  0.00     0.217 HD
ENDBRANCH   8  22
BRANCH  10  24
ATOM     24  O   UNL d   1       5.313  44.460  40.520  0.00  0.00    -0.361 OA
ATOM     25  H   UNL d   1       5.059  43.925  40.705  0.00  0.00     0.217 HD
ENDBRANCH  10  24
TORSDOF 5
ENDMDL
MODEL 4
REMARK VINA RESULT:    -7.312     13.794     15.316
REMARK INTER + INTRA:          -6.979
REMARK INTER:                  -9.074
REMARK INTRA:                   2.095
REMARK UNBOUND:                 1.828
REMARK  5 active torsions:
REMARK  status: ('A' for Active; 'I' for Inactive)
REMARK    1  A    between atoms: O_2  and  C_13 
REMARK    2  A    between atoms: O_3  and  C_19 
REMARK    3  A    between atoms: O_5  and  C_17 
REMARK    4  A    between atoms: O_6  and  C_21 
REMARK    5  A    between atoms: C_8  and  C_10 
ROOT
ATOM      1  O   UNL d   1       8.380  48.159  24.961  0.00  0.00    -0.309 OA
ATOM      2  O   UNL d   1       7.165  45.456  25.425  0.00  0.00    -0.287 OA
ATOM      3  C   UNL d   1       7.591  47.029  26.010  0.00  0.00     0.081 A 
ATOM      4  C   UNL d   1       8.359  47.487  24.221  0.00  0.00     0.090 A 
ATOM      5  C   UNL d   1       7.996  47.930  25.856  0.00  0.00     0.095 A 
ATOM      6  C   UNL d   1       7.570  46.357  25.270  0.00  0.00     0.190 A 
ATOM      7  C   UNL d   1       7.954  46.586  24.376  0.00  0.00     0.094 A 
ATOM      8  C   UNL d   1       7.187  46.777  26.937  0.00  0.00     0.085 A 
ATOM      9  C   UNL d   1       8.025  48.641  26.617  0.00  0.00     0.075 A 
ATOM     10  C   UNL d   1       7.627  48.410  27.551  0.00  0.00     0.071 A 
ATOM     11  C   UNL d   1       7.206  47.472  27.712  0.00  0.00     0.074 A 
ENDROOT
BRANCH   4  12
ATOM     12  C   UNL d   1       8.743  47.716  23.327  0.00  0.00     0.001 A 
ATOM     13  C   UNL d   1       9.574  48.269  23.266  0.00  0.00     0.054 A 
ATOM     14  C   UNL d   1       9.958  48.498  22.372  0.00  0.00     0.102 A 
ATOM     15  C   UNL d   1       9.511  48.174  21.538  0.00  0.00     0.099 A 
ATOM     16  C   UNL d   1       8.679  47.621  21.599  0.00  0.00     0.040 A 
ATOM     17  C   UNL d   1       8.295  47.392  22.493  0.00  0.00     0.017 A 
BRANCH  14  18
ATOM     18  O   UNL d   1      10.789  49.050  22.311  0.00  0.00    -0.353 OA
ATOM     19  C   UNL d   1      11.188  49.445  23.138  0.00  0.00     0.210 C 
ENDBRANCH  14  18
BRANCH  15  20
ATOM     20  O   UNL d   1       9.895  48.403  20.643  0.00  0.00    -0.358 OA
ATOM     21  H   UNL d   1       9.571  48.286  20.128  0.00  0.00     0.217 HD
ENDBRANCH  15  20
ENDBRANCH   4  12
BRANCH   8  22
ATOM     22  O   UNL d   1       6.785  45.872  27.080  0.00  0.00    -0.360 OA
ATOM     23  H   UNL d   1       7.067  45.369  26.855  0.00  0.00     0.217 HD
ENDBRANCH   8  22
BRANCH  10  24
ATOM     24  O   UNL d   1       7.650  49.085  28.289  0.00  0.00    -0.361 OA
ATOM     25  H   UNL d   1       7.471  48.926  28.860  0.00  0.00     0.217 HD
ENDBRANCH  10  24
TORSDOF 5
ENDMDL
MODEL 5
REMARK VINA RESULT:    -7.290     13.436     14.785
REMARK INTER + INTRA:          -6.953
REMARK INTER:                  -9.070
REMARK INTRA:                   2.118
REMARK UNBOUND:                 1.828
REMARK  5 active torsions:
REMARK  status: ('A' for Active; 'I' for Inactive)
REMARK    1  A    between atoms: O_2  and  C_13 
REMARK    2  A    between atoms: O_3  and  C_19 
REMARK    3  A    between atoms: O_5  and  C_17 
REMARK    4  A    between atoms: O_6  and  C_21 
REMARK    5  A    between atoms: C_8  and  C_10 
ROOT
ATOM      1  O   UNL d   1       8.653  47.855  24.729  0.00  0.00    -0.309 OA
ATOM      2  O   UNL d   1       7.108  46.167  22.789  0.00  0.00    -0.287 OA
ATOM      3  C   UNL d   1       8.353  47.328  23.106  0.00  0.00     0.081 A 
ATOM      4  C   UNL d   1       7.923  47.256  25.058  0.00  0.00     0.090 A 
ATOM      5  C   UNL d   1       8.868  47.891  23.753  0.00  0.00     0.095 A 
ATOM      6  C   UNL d   1       7.623  46.729  23.435  0.00  0.00     0.190 A 
ATOM      7  C   UNL d   1       7.408  46.693  24.411  0.00  0.00     0.094 A 
ATOM      8  C   UNL d   1       8.566  47.355  22.087  0.00  0.00     0.085 A 
ATOM      9  C   UNL d   1       9.632  48.520  23.425  0.00  0.00     0.075 A 
ATOM     10  C   UNL d   1       9.862  48.562  22.410  0.00  0.00     0.071 A 
ATOM     11  C   UNL d   1       9.326  47.977  21.737  0.00  0.00     0.074 A 
ENDROOT
BRANCH   4  12
ATOM     12  C   UNL d   1       7.708  47.220  26.034  0.00  0.00     0.001 A 
ATOM     13  C   UNL d   1       7.456  46.350  26.459  0.00  0.00     0.054 A 
ATOM     14  C   UNL d   1       7.241  46.314  27.434  0.00  0.00     0.102 A 
ATOM     15  C   UNL d   1       7.277  47.148  27.986  0.00  0.00     0.099 A 
ATOM     16  C   UNL d   1       7.529  48.018  27.561  0.00  0.00     0.040 A 
ATOM     17  C   UNL d   1       7.744  48.054  26.585  0.00  0.00     0.017 A 
BRANCH  14  18
ATOM     18  O   UNL d   1       6.989  45.445  27.859  0.00  0.00    -0.353 OA
ATOM     19  C   UNL d   1       6.850  44.633  27.292  0.00  0.00     0.210 C 
ENDBRANCH  14  18
BRANCH  15  20
ATOM     20  O   UNL d   1       7.062  47.112  28.961  0.00  0.00    -0.358 OA
ATOM     21  H   UNL d   1       7.015  46.564  29.249  0.00  0.00     0.217 HD
ENDBRANCH  15  20
ENDBRANCH   4  12
BRANCH   8  22
ATOM     22  O   UNL d   1       8.045  46.788  21.450  0.00  0.00    -0.360 OA
ATOM     23  H   UNL d   1       8.334  46.502  20.982  0.00  0.00     0.217 HD
ENDBRANCH   8  22
BRANCH  10  24
ATOM     24  O   UNL d   1      10.593  49.163  22.085  0.00  0.00    -0.361 OA
ATOM     25  H   UNL d   1      10.753  49.662  22.415  0.00  0.00     0.217 HD
ENDBRANCH  10  24
TORSDOF 5
ENDMDL
