MODEL 1
REMARK VINA RESULT:    -7.533      0.000      0.000
REMARK INTER + INTRA:          -4.722
REMARK INTER:                 -10.343
REMARK INTRA:                   5.621
REMARK UNBOUND:                 5.013
REMARK  6 active torsions:
REMARK  status: ('A' for Active; 'I' for Inactive)
REMARK    1  A    between atoms: O_2  and  C_15 
REMARK    2  A    between atoms: O_3  and  C_17 
REMARK    3  A    between atoms: O_4  and  C_11 
REMARK    4  A    between atoms: O_6  and  C_22 
REMARK    5  A    between atoms: O_7  and  C_20 
REMARK    6  A    between atoms: C_10  and  C_13 
ROOT
ATOM      1  O   UNL d   1      10.344  45.464  38.909  0.00  0.00    -0.309 OA
ATOM      2  O   UNL d   1      10.827  47.909  40.699  0.00  0.00    -0.287 OA
ATOM      3  C   UNL d   1      11.405  46.772  39.473  0.00  0.00     0.084 A 
ATOM      4  C   UNL d   1      11.251  45.976  38.888  0.00  0.00     0.096 A 
ATOM      5  C   UNL d   1       9.587  45.787  39.548  0.00  0.00     0.090 A 
ATOM      6  C   UNL d   1      12.281  47.254  39.442  0.00  0.00     0.119 A 
ATOM      7  C   UNL d   1      10.662  47.112  40.119  0.00  0.00     0.190 A 
ATOM      8  C   UNL d   1      11.973  45.661  38.272  0.00  0.00     0.078 A 
ATOM      9  C   UNL d   1      13.003  46.938  38.826  0.00  0.00     0.136 A 
ATOM     10  C   UNL d   1       9.748  46.617  40.157  0.00  0.00     0.094 A 
ATOM     11  C   UNL d   1      12.850  46.142  38.241  0.00  0.00     0.107 A 
ENDROOT
BRANCH   5  12
ATOM     12  C   UNL d   1       8.712  45.303  39.576  0.00  0.00     0.001 A 
ATOM     13  C   UNL d   1       7.973  45.643  40.157  0.00  0.00     0.053 A 
ATOM     14  C   UNL d   1       7.097  45.160  40.186  0.00  0.00     0.099 A 
ATOM     15  C   UNL d   1       6.962  44.337  39.633  0.00  0.00     0.101 A 
ATOM     16  C   UNL d   1       7.702  43.997  39.052  0.00  0.00     0.040 A 
ATOM     17  C   UNL d   1       8.577  44.481  39.024  0.00  0.00     0.017 A 
BRANCH  14  18
ATOM     18  O   UNL d   1       6.357  45.498  40.766  0.00  0.00    -0.358 OA
ATOM     19  H   UNL d   1       5.773  45.493  40.559  0.00  0.00     0.217 HD
ENDBRANCH  14  18
BRANCH  15  20
ATOM     20  O   UNL d   1       6.088  43.854  39.662  0.00  0.00    -0.353 OA
ATOM     21  C   UNL d   1       5.733  43.412  38.838  0.00  0.00     0.210 C 
ENDBRANCH  15  20
ENDBRANCH   5  12
BRANCH   6  22
ATOM     22  O   UNL d   1      12.435  48.050  40.027  0.00  0.00    -0.357 OA
ATOM     23  H   UNL d   1      11.967  48.436  40.154  0.00  0.00     0.218 HD
ENDBRANCH   6  22
BRANCH  11  24
ATOM     24  O   UNL d   1      13.572  45.827  37.626  0.00  0.00    -0.353 OA
ATOM     25  C   UNL d   1      13.759  44.849  37.534  0.00  0.00     0.210 C 
ENDBRANCH  11  24
BRANCH   9  26
ATOM     26  O   UNL d   1      13.879  47.420  38.796  0.00  0.00    -0.351 OA
ATOM     27  C   UNL d   1      13.954  48.291  38.312  0.00  0.00     0.210 C 
ENDBRANCH   9  26
TORSDOF 6
ENDMDL
MODEL 2
REMARK VINA RESULT:    -7.160     14.729     16.296
REMARK INTER + INTRA:          -4.240
REMARK INTER:                  -9.632
REMARK INTRA:                   5.392
REMARK UNBOUND:                 5.013
REMARK  6 active torsions:
REMARK  status: ('A' for Active; 'I' for Inactive)
REMARK    1  A    between atoms: O_2  and  C_15 
REMARK    2  A    between atoms: O_3  and  C_17 
REMARK    3  A    between atoms: O_4  and  C_11 
REMARK    4  A    between atoms: O_6  and  C_22 
REMARK    5  A    between atoms: O_7  and  C_20 
REMARK    6  A    between atoms: C_10  and  C_13 
ROOT
ATOM      1  O   UNL d   1       8.802  48.116  24.498  0.00  0.00    -0.309 OA
ATOM      2  O   UNL d   1       7.367  45.691  23.284  0.00  0.00    -0.287 OA
ATOM      3  C   UNL d   1       7.650  46.773  24.654  0.00  0.00     0.084 A 
ATOM      4  C   UNL d   1       8.116  47.563  25.054  0.00  0.00     0.096 A 
ATOM      5  C   UNL d   1       9.006  47.843  23.514  0.00  0.00     0.090 A 
ATOM      6  C   UNL d   1       6.994  46.252  25.200  0.00  0.00     0.119 A 
ATOM      7  C   UNL d   1       7.838  46.482  23.672  0.00  0.00     0.190 A 
ATOM      8  C   UNL d   1       7.926  47.831  25.998  0.00  0.00     0.078 A 
ATOM      9  C   UNL d   1       6.803  46.520  26.144  0.00  0.00     0.136 A 
ATOM     10  C   UNL d   1       8.520  47.020  23.098  0.00  0.00     0.094 A 
ATOM     11  C   UNL d   1       7.269  47.310  26.543  0.00  0.00     0.107 A 
ENDROOT
BRANCH   5  12
ATOM     12  C   UNL d   1       9.663  48.366  22.972  0.00  0.00     0.001 A 
ATOM     13  C   UNL d   1      10.372  48.903  23.428  0.00  0.00     0.053 A 
ATOM     14  C   UNL d   1      11.030  49.427  22.886  0.00  0.00     0.099 A 
ATOM     15  C   UNL d   1      10.977  49.414  21.888  0.00  0.00     0.101 A 
ATOM     16  C   UNL d   1      10.267  48.878  21.431  0.00  0.00     0.040 A 
ATOM     17  C   UNL d   1       9.610  48.354  21.973  0.00  0.00     0.017 A 
BRANCH  14  18
ATOM     18  O   UNL d   1      11.740  49.964  23.342  0.00  0.00    -0.358 OA
ATOM     19  H   UNL d   1      11.853  50.546  23.162  0.00  0.00     0.217 HD
ENDBRANCH  14  18
BRANCH  15  20
ATOM     20  O   UNL d   1      11.634  49.938  21.345  0.00  0.00    -0.353 OA
ATOM     21  C   UNL d   1      11.631  49.864  20.348  0.00  0.00     0.210 C 
ENDBRANCH  15  20
ENDBRANCH   5  12
BRANCH   6  22
ATOM     22  O   UNL d   1       6.528  45.462  24.800  0.00  0.00    -0.357 OA
ATOM     23  H   UNL d   1       5.911  45.463  24.743  0.00  0.00     0.218 HD
ENDBRANCH   6  22
BRANCH  11  24
ATOM     24  O   UNL d   1       7.079  47.578  27.487  0.00  0.00    -0.353 OA
ATOM     25  C   UNL d   1       7.604  48.315  27.913  0.00  0.00     0.210 C 
ENDBRANCH  11  24
BRANCH   9  26
ATOM     26  O   UNL d   1       6.147  45.999  26.689  0.00  0.00    -0.351 OA
ATOM     27  C   UNL d   1       6.418  45.127  27.098  0.00  0.00     0.210 C 
ENDBRANCH   9  26
TORSDOF 6
ENDMDL
MODEL 3
REMARK VINA RESULT:    -6.985     14.947     15.735
REMARK INTER + INTRA:          -4.014
REMARK INTER:                  -9.118
REMARK INTRA:                   5.104
REMARK UNBOUND:                 5.013
REMARK  6 active torsions:
REMARK  status: ('A' for Active; 'I' for Inactive)
REMARK    1  A    between atoms: O_2  and  C_15 
REMARK    2  A    between atoms: O_3  and  C_17 
REMARK    3  A    between atoms: O_4  and  C_11 
REMARK    4  A    between atoms: O_6  and  C_22 
REMARK    5  A    between atoms: O_7  and  C_20 
REMARK    6  A    between atoms: C_10  and  C_13 
ROOT
ATOM      1  O   UNL d   1       8.846  47.598  24.332  0.00  0.00    -0.309 OA
ATOM      2  O   UNL d   1       7.503  46.979  21.642  0.00  0.00    -0.287 OA
ATOM      3  C   UNL d   1       8.777  47.788  22.567  0.00  0.00     0.084 A 
ATOM      4  C   UNL d   1       9.217  47.992  23.441  0.00  0.00     0.096 A 
ATOM      5  C   UNL d   1       8.005  46.983  24.310  0.00  0.00     0.090 A 
ATOM      6  C   UNL d   1       9.144  48.173  21.720  0.00  0.00     0.119 A 
ATOM      7  C   UNL d   1       7.935  47.176  22.522  0.00  0.00     0.190 A 
ATOM      8  C   UNL d   1      10.024  48.581  23.469  0.00  0.00     0.078 A 
ATOM      9  C   UNL d   1       9.952  48.762  21.748  0.00  0.00     0.136 A 
ATOM     10  C   UNL d   1       7.547  46.771  23.399  0.00  0.00     0.094 A 
ATOM     11  C   UNL d   1      10.392  48.966  22.623  0.00  0.00     0.107 A 
ENDROOT
BRANCH   5  12
ATOM     12  C   UNL d   1       7.641  46.600  25.158  0.00  0.00     0.001 A 
ATOM     13  C   UNL d   1       7.312  47.208  25.881  0.00  0.00     0.053 A 
ATOM     14  C   UNL d   1       6.947  46.825  26.730  0.00  0.00     0.099 A 
ATOM     15  C   UNL d   1       6.911  45.833  26.856  0.00  0.00     0.101 A 
ATOM     16  C   UNL d   1       7.240  45.225  26.133  0.00  0.00     0.040 A 
ATOM     17  C   UNL d   1       7.605  45.609  25.285  0.00  0.00     0.017 A 
BRANCH  14  18
ATOM     18  O   UNL d   1       6.617  47.432  27.453  0.00  0.00    -0.358 OA
ATOM     19  H   UNL d   1       7.018  47.689  27.849  0.00  0.00     0.217 HD
ENDBRANCH  14  18
BRANCH  15  20
ATOM     20  O   UNL d   1       6.546  45.450  27.704  0.00  0.00    -0.353 OA
ATOM     21  C   UNL d   1       6.491  44.458  27.822  0.00  0.00     0.210 C 
ENDBRANCH  15  20
ENDBRANCH   5  12
BRANCH   6  22
ATOM     22  O   UNL d   1       8.704  47.969  20.846  0.00  0.00    -0.357 OA
ATOM     23  H   UNL d   1       9.049  47.827  20.351  0.00  0.00     0.218 HD
ENDBRANCH   6  22
BRANCH  11  24
ATOM     24  O   UNL d   1      11.199  49.555  22.651  0.00  0.00    -0.353 OA
ATOM     25  C   UNL d   1      11.576  49.846  23.530  0.00  0.00     0.210 C 
ENDBRANCH  11  24
BRANCH   9  26
ATOM     26  O   UNL d   1      10.319  49.148  20.902  0.00  0.00    -0.351 OA
ATOM     27  C   UNL d   1      10.891  48.586  20.304  0.00  0.00     0.210 C 
ENDBRANCH   9  26
TORSDOF 6
ENDMDL
MODEL 4
REMARK VINA RESULT:    -6.772     13.538     14.247
REMARK INTER + INTRA:          -3.738
REMARK INTER:                  -8.857
REMARK INTRA:                   5.119
REMARK UNBOUND:                 5.013
REMARK  6 active torsions:
REMARK  status: ('A' for Active; 'I' for Inactive)
REMARK    1  A    between atoms: O_2  and  C_15 
REMARK    2  A    between atoms: O_3  and  C_17 
REMARK    3  A    between atoms: O_4  and  C_11 
REMARK    4  A    between atoms: O_6  and  C_22 
REMARK    5  A    between atoms: O_7  and  C_20 
REMARK    6  A    between atoms: C_10  and  C_13 
ROOT
ATOM      1  O   UNL d   1       7.346  45.660  25.151  0.00  0.00    -0.309 OA
ATOM      2  O   UNL d   1       7.977  48.366  26.454  0.00  0.00    -0.287 OA
ATOM      3  C   UNL d   1       8.081  47.275  25.065  0.00  0.00     0.084 A 
ATOM      4  C   UNL d   1       7.877  46.394  24.637  0.00  0.00     0.096 A 
ATOM      5  C   UNL d   1       7.022  45.846  26.123  0.00  0.00     0.090 A 
ATOM      6  C   UNL d   1       8.592  47.970  24.559  0.00  0.00     0.119 A 
ATOM      7  C   UNL d   1       7.768  47.482  26.036  0.00  0.00     0.190 A 
ATOM      8  C   UNL d   1       8.185  46.209  23.704  0.00  0.00     0.078 A 
ATOM      9  C   UNL d   1       8.900  47.784  23.626  0.00  0.00     0.136 A 
ATOM     10  C   UNL d   1       7.235  46.764  26.569  0.00  0.00     0.094 A 
ATOM     11  C   UNL d   1       8.696  46.904  23.198  0.00  0.00     0.107 A 
ENDROOT
BRANCH   5  12
ATOM     12  C   UNL d   1       6.512  45.149  26.626  0.00  0.00     0.001 A 
ATOM     13  C   UNL d   1       5.622  44.840  26.288  0.00  0.00     0.053 A 
ATOM     14  C   UNL d   1       5.111  44.143  26.790  0.00  0.00     0.099 A 
ATOM     15  C   UNL d   1       5.489  43.754  27.631  0.00  0.00     0.101 A 
ATOM     16  C   UNL d   1       6.378  44.063  27.968  0.00  0.00     0.040 A 
ATOM     17  C   UNL d   1       6.889  44.760  27.466  0.00  0.00     0.017 A 
BRANCH  14  18
ATOM     18  O   UNL d   1       4.221  43.834  26.454  0.00  0.00    -0.358 OA
ATOM     19  H   UNL d   1       4.105  43.828  25.845  0.00  0.00     0.217 HD
ENDBRANCH  14  18
BRANCH  15  20
ATOM     20  O   UNL d   1       4.978  43.057  28.133  0.00  0.00    -0.353 OA
ATOM     21  C   UNL d   1       5.461  42.415  28.729  0.00  0.00     0.210 C 
ENDBRANCH  15  20
ENDBRANCH   5  12
BRANCH   6  22
ATOM     22  O   UNL d   1       8.796  48.850  24.987  0.00  0.00    -0.357 OA
ATOM     23  H   UNL d   1       9.376  48.984  25.160  0.00  0.00     0.218 HD
ENDBRANCH   6  22
BRANCH  11  24
ATOM     24  O   UNL d   1       9.003  46.718  22.265  0.00  0.00    -0.353 OA
ATOM     25  C   UNL d   1       8.682  45.901  21.786  0.00  0.00     0.210 C 
ENDBRANCH  11  24
BRANCH   9  26
ATOM     26  O   UNL d   1       9.411  48.479  23.120  0.00  0.00    -0.351 OA
ATOM     27  C   UNL d   1      10.387  48.609  23.296  0.00  0.00     0.210 C 
ENDBRANCH   9  26
TORSDOF 6
ENDMDL
MODEL 5
REMARK VINA RESULT:    -6.609     14.026     15.343
REMARK INTER + INTRA:          -3.527
REMARK INTER:                  -8.646
REMARK INTRA:                   5.119
REMARK UNBOUND:                 5.013
REMARK  6 active torsions:
REMARK  status: ('A' for Active; 'I' for Inactive)
REMARK    1  A    between atoms: O_2  and  C_15 
REMARK    2  A    between atoms: O_3  and  C_17 
REMARK    3  A    between atoms: O_4  and  C_11 
REMARK    4  A    between atoms: O_6  and  C_22 
REMARK    5  A    between atoms: O_7  and  C_20 
REMARK    6  A    between atoms: C_10  and  C_13 
ROOT
ATOM      1  O   UNL d   1       8.054  45.710  24.682  0.00  0.00    -0.309 OA
ATOM      2  O   UNL d   1       6.954  47.341  27.037  0.00  0.00    -0.287 OA
ATOM      3  C   UNL d   1       7.309  45.775  26.293  0.00  0.00     0.084 A 
ATOM      4  C   UNL d   1       7.666  45.240  25.527  0.00  0.00     0.096 A 
ATOM      5  C   UNL d   1       8.069  46.750  24.633  0.00  0.00     0.090 A 
ATOM      6  C   UNL d   1       6.940  45.311  27.098  0.00  0.00     0.119 A 
ATOM      7  C   UNL d   1       7.314  46.816  26.266  0.00  0.00     0.190 A 
ATOM      8  C   UNL d   1       7.655  44.241  25.566  0.00  0.00     0.078 A 
ATOM      9  C   UNL d   1       6.928  44.312  27.137  0.00  0.00     0.136 A 
ATOM     10  C   UNL d   1       7.697  47.307  25.431  0.00  0.00     0.094 A 
ATOM     11  C   UNL d   1       7.286  43.777  26.372  0.00  0.00     0.107 A 
ENDROOT
BRANCH   5  12
ATOM     12  C   UNL d   1       8.439  47.211  23.827  0.00  0.00     0.001 A 
ATOM     13  C   UNL d   1       9.198  47.855  23.923  0.00  0.00     0.053 A 
ATOM     14  C   UNL d   1       9.568  48.317  23.117  0.00  0.00     0.099 A 
ATOM     15  C   UNL d   1       9.179  48.134  22.214  0.00  0.00     0.101 A 
ATOM     16  C   UNL d   1       8.419  47.491  22.118  0.00  0.00     0.040 A 
ATOM     17  C   UNL d   1       8.050  47.030  22.924  0.00  0.00     0.017 A 
BRANCH  14  18
ATOM     18  O   UNL d   1      10.328  48.960  23.213  0.00  0.00    -0.358 OA
ATOM     19  H   UNL d   1      10.256  49.552  23.043  0.00  0.00     0.217 HD
ENDBRANCH  14  18
BRANCH  15  20
ATOM     20  O   UNL d   1       9.548  48.595  21.408  0.00  0.00    -0.353 OA
ATOM     21  C   UNL d   1       9.282  48.294  20.493  0.00  0.00     0.210 C 
ENDBRANCH  15  20
ENDBRANCH   5  12
BRANCH   6  22
ATOM     22  O   UNL d   1       6.582  45.845  27.863  0.00  0.00    -0.357 OA
ATOM     23  H   UNL d   1       5.979  45.820  28.004  0.00  0.00     0.218 HD
ENDBRANCH   6  22
BRANCH  11  24
ATOM     24  O   UNL d   1       7.275  42.778  26.411  0.00  0.00    -0.353 OA
ATOM     25  C   UNL d   1       7.839  42.246  25.780  0.00  0.00     0.210 C 
ENDBRANCH  11  24
BRANCH   9  26
ATOM     26  O   UNL d   1       6.560  43.847  27.942  0.00  0.00    -0.351 OA
ATOM     27  C   UNL d   1       5.576  43.685  28.019  0.00  0.00     0.210 C 
ENDBRANCH   9  26
TORSDOF 6
ENDMDL
