MODEL 1
REMARK VINA RESULT:   -10.913      0.000      0.000
REMARK INTER + INTRA:          -9.681
REMARK INTER:                 -13.565
REMARK INTRA:                   3.884
REMARK UNBOUND:                 3.465
REMARK  6 active torsions:
REMARK  status: ('A' for Active; 'I' for Inactive)
REMARK    1  A    between atoms: O_2  and  C_7 
REMARK    2  A    between atoms: O_3  and  C_13 
REMARK    3  A    between atoms: O_4  and  C_18 
REMARK    4  A    between atoms: O_5  and  C_19 
REMARK    5  A    between atoms: O_6  and  C_21 
REMARK    6  A    between atoms: C_8  and  C_12 
ROOT
ATOM      1  O   UNL d   1      11.457 -20.882  17.388  0.00  0.00    -0.338 OA
ATOM      2  C   UNL d   1      13.131 -21.325  17.417  0.00  0.00     0.156 A 
ATOM      3  C   UNL d   1      12.270 -21.225  16.918  0.00  0.00     0.191 A 
ATOM      4  C   UNL d   1      13.178 -21.083  18.386  0.00  0.00     0.079 A 
ATOM      5  C   UNL d   1      12.365 -20.741  18.856  0.00  0.00     0.011 A 
ATOM      6  C   UNL d   1      11.504 -20.640  18.357  0.00  0.00     0.081 A 
ATOM      7  C   UNL d   1      12.430 -20.492  19.866  0.00  0.00     0.077 A 
ATOM      8  C   UNL d   1      10.649 -20.284  18.834  0.00  0.00     0.074 A 
ATOM      9  C   UNL d   1      11.587 -20.135  20.362  0.00  0.00     0.073 A 
ATOM     10  C   UNL d   1      10.691 -20.030  19.843  0.00  0.00     0.071 A 
ENDROOT
BRANCH   3  11
ATOM     11  C   UNL d   1      12.222 -21.467  15.949  0.00  0.00    -0.024 A 
ATOM     12  C   UNL d   1      12.432 -22.399  15.656  0.00  0.00     0.049 A 
ATOM     13  C   UNL d   1      12.384 -22.641  14.687  0.00  0.00     0.099 A 
ATOM     14  C   UNL d   1      12.127 -21.951  14.011  0.00  0.00     0.098 A 
ATOM     15  C   UNL d   1      11.916 -21.018  14.304  0.00  0.00     0.040 A 
ATOM     16  C   UNL d   1      11.964 -20.776  15.273  0.00  0.00     0.013 A 
BRANCH  13  17
ATOM     17  O   UNL d   1      12.595 -23.574  14.393  0.00  0.00    -0.358 OA
ATOM     18  H   UNL d   1      13.136 -23.833  14.549  0.00  0.00     0.217 HD
ENDBRANCH  13  17
BRANCH  14  19
ATOM     19  O   UNL d   1      12.079 -22.193  13.042  0.00  0.00    -0.358 OA
ATOM     20  H   UNL d   1      11.715 -21.868  12.659  0.00  0.00     0.217 HD
ENDBRANCH  14  19
ENDBRANCH   3  11
BRANCH   2  21
ATOM     21  O   UNL d   1      13.944 -21.668  16.947  0.00  0.00    -0.392 OA
ATOM     22  H   UNL d   1      14.378 -21.272  16.750  0.00  0.00     0.210 HD
ENDBRANCH   2  21
BRANCH   7  23
ATOM     23  O   UNL d   1      13.296 -20.597  20.354  0.00  0.00    -0.360 OA
ATOM     24  H   UNL d   1      13.420 -21.125  20.654  0.00  0.00     0.217 HD
ENDBRANCH   7  23
BRANCH  10  25
ATOM     25  O   UNL d   1       9.876 -19.687  20.310  0.00  0.00    -0.361 OA
ATOM     26  H   UNL d   1       9.313 -19.804  20.079  0.00  0.00     0.217 HD
ENDBRANCH  10  25
TORSDOF 6
ENDMDL
MODEL 2
REMARK VINA RESULT:   -10.092      1.543      5.005
REMARK INTER + INTRA:          -8.691
REMARK INTER:                 -12.452
REMARK INTRA:                   3.761
REMARK UNBOUND:                 3.465
REMARK  6 active torsions:
REMARK  status: ('A' for Active; 'I' for Inactive)
REMARK    1  A    between atoms: O_2  and  C_7 
REMARK    2  A    between atoms: O_3  and  C_13 
REMARK    3  A    between atoms: O_4  and  C_18 
REMARK    4  A    between atoms: O_5  and  C_19 
REMARK    5  A    between atoms: O_6  and  C_21 
REMARK    6  A    between atoms: C_8  and  C_12 
ROOT
ATOM      1  O   UNL d   1      13.084 -21.664  18.093  0.00  0.00    -0.338 OA
ATOM      2  C   UNL d   1      11.631 -21.893  17.179  0.00  0.00     0.156 A 
ATOM      3  C   UNL d   1      12.108 -21.490  17.960  0.00  0.00     0.191 A 
ATOM      4  C   UNL d   1      12.129 -22.470  16.531  0.00  0.00     0.079 A 
ATOM      5  C   UNL d   1      13.105 -22.643  16.665  0.00  0.00     0.011 A 
ATOM      6  C   UNL d   1      13.582 -22.240  17.446  0.00  0.00     0.081 A 
ATOM      7  C   UNL d   1      13.611 -23.246  15.983  0.00  0.00     0.077 A 
ATOM      8  C   UNL d   1      14.599 -22.412  17.598  0.00  0.00     0.074 A 
ATOM      9  C   UNL d   1      14.627 -23.431  16.115  0.00  0.00     0.073 A 
ATOM     10  C   UNL d   1      15.124 -23.011  16.928  0.00  0.00     0.071 A 
ENDROOT
BRANCH   3  11
ATOM     11  C   UNL d   1      11.610 -20.913  18.607  0.00  0.00    -0.024 A 
ATOM     12  C   UNL d   1      11.216 -20.046  18.303  0.00  0.00     0.049 A 
ATOM     13  C   UNL d   1      10.717 -19.469  18.951  0.00  0.00     0.099 A 
ATOM     14  C   UNL d   1      10.613 -19.760  19.902  0.00  0.00     0.098 A 
ATOM     15  C   UNL d   1      11.008 -20.627  20.205  0.00  0.00     0.040 A 
ATOM     16  C   UNL d   1      11.506 -21.204  19.558  0.00  0.00     0.013 A 
BRANCH  13  17
ATOM     17  O   UNL d   1      10.323 -18.602  18.647  0.00  0.00    -0.358 OA
ATOM     18  H   UNL d   1       9.724 -18.572  18.489  0.00  0.00     0.217 HD
ENDBRANCH  13  17
BRANCH  14  19
ATOM     19  O   UNL d   1      10.115 -19.183  20.549  0.00  0.00    -0.358 OA
ATOM     20  H   UNL d   1      10.421 -18.772  20.897  0.00  0.00     0.217 HD
ENDBRANCH  14  19
ENDBRANCH   3  11
BRANCH   2  21
ATOM     21  O   UNL d   1      10.655 -21.720  17.045  0.00  0.00    -0.392 OA
ATOM     22  H   UNL d   1      10.443 -21.556  16.486  0.00  0.00     0.210 HD
ENDBRANCH   2  21
BRANCH   7  23
ATOM     23  O   UNL d   1      13.123 -23.644  15.205  0.00  0.00    -0.360 OA
ATOM     24  H   UNL d   1      12.945 -23.283  14.734  0.00  0.00     0.217 HD
ENDBRANCH   7  23
BRANCH  10  25
ATOM     25  O   UNL d   1      16.100 -23.183  17.064  0.00  0.00    -0.361 OA
ATOM     26  H   UNL d   1      16.362 -23.692  16.828  0.00  0.00     0.217 HD
ENDBRANCH  10  25
TORSDOF 6
ENDMDL
MODEL 3
REMARK VINA RESULT:    -9.643      1.039      4.873
REMARK INTER + INTRA:          -8.151
REMARK INTER:                 -11.805
REMARK INTRA:                   3.654
REMARK UNBOUND:                 3.465
REMARK  6 active torsions:
REMARK  status: ('A' for Active; 'I' for Inactive)
REMARK    1  A    between atoms: O_2  and  C_7 
REMARK    2  A    between atoms: O_3  and  C_13 
REMARK    3  A    between atoms: O_4  and  C_18 
REMARK    4  A    between atoms: O_5  and  C_19 
REMARK    5  A    between atoms: O_6  and  C_21 
REMARK    6  A    between atoms: C_8  and  C_12 
ROOT
ATOM      1  O   UNL d   1      11.705 -21.460  17.253  0.00  0.00    -0.338 OA
ATOM      2  C   UNL d   1      12.988 -21.423  18.416  0.00  0.00     0.156 A 
ATOM      3  C   UNL d   1      12.051 -21.195  18.153  0.00  0.00     0.191 A 
ATOM      4  C   UNL d   1      13.580 -21.917  17.779  0.00  0.00     0.079 A 
ATOM      5  C   UNL d   1      13.234 -22.183  16.879  0.00  0.00     0.011 A 
ATOM      6  C   UNL d   1      12.297 -21.954  16.616  0.00  0.00     0.081 A 
ATOM      7  C   UNL d   1      13.862 -22.696  16.226  0.00  0.00     0.077 A 
ATOM      8  C   UNL d   1      11.922 -22.224  15.682  0.00  0.00     0.074 A 
ATOM      9  C   UNL d   1      13.509 -22.976  15.287  0.00  0.00     0.073 A 
ATOM     10  C   UNL d   1      12.533 -22.738  15.013  0.00  0.00     0.071 A 
ENDROOT
BRANCH   3  11
ATOM     11  C   UNL d   1      11.459 -20.701  18.790  0.00  0.00    -0.024 A 
ATOM     12  C   UNL d   1      11.222 -19.745  18.614  0.00  0.00     0.049 A 
ATOM     13  C   UNL d   1      10.630 -19.252  19.251  0.00  0.00     0.099 A 
ATOM     14  C   UNL d   1      10.275 -19.713  20.064  0.00  0.00     0.098 A 
ATOM     15  C   UNL d   1      10.513 -20.668  20.240  0.00  0.00     0.040 A 
ATOM     16  C   UNL d   1      11.104 -21.162  19.603  0.00  0.00     0.013 A 
BRANCH  13  17
ATOM     17  O   UNL d   1      10.393 -18.296  19.074  0.00  0.00    -0.358 OA
ATOM     18  H   UNL d   1       9.923 -18.032  19.381  0.00  0.00     0.217 HD
ENDBRANCH  13  17
BRANCH  14  19
ATOM     19  O   UNL d   1       9.684 -19.219  20.701  0.00  0.00    -0.358 OA
ATOM     20  H   UNL d   1       9.735 -19.316  21.311  0.00  0.00     0.217 HD
ENDBRANCH  14  19
ENDBRANCH   3  11
BRANCH   2  21
ATOM     21  O   UNL d   1      13.334 -21.158  19.316  0.00  0.00    -0.392 OA
ATOM     22  H   UNL d   1      13.939 -21.052  19.397  0.00  0.00     0.210 HD
ENDBRANCH   2  21
BRANCH   7  23
ATOM     23  O   UNL d   1      14.797 -22.920  16.499  0.00  0.00    -0.360 OA
ATOM     24  H   UNL d   1      15.184 -22.469  16.676  0.00  0.00     0.217 HD
ENDBRANCH   7  23
BRANCH  10  25
ATOM     25  O   UNL d   1      12.184 -23.002  14.114  0.00  0.00    -0.361 OA
ATOM     26  H   UNL d   1      12.205 -23.595  13.934  0.00  0.00     0.217 HD
ENDBRANCH  10  25
TORSDOF 6
ENDMDL
MODEL 4
REMARK VINA RESULT:    -9.590      1.604      2.257
REMARK INTER + INTRA:          -8.086
REMARK INTER:                 -11.548
REMARK INTRA:                   3.461
REMARK UNBOUND:                 3.465
REMARK  6 active torsions:
REMARK  status: ('A' for Active; 'I' for Inactive)
REMARK    1  A    between atoms: O_2  and  C_7 
REMARK    2  A    between atoms: O_3  and  C_13 
REMARK    3  A    between atoms: O_4  and  C_18 
REMARK    4  A    between atoms: O_5  and  C_19 
REMARK    5  A    between atoms: O_6  and  C_21 
REMARK    6  A    between atoms: C_8  and  C_12 
ROOT
ATOM      1  O   UNL d   1      12.394 -22.098  17.594  0.00  0.00    -0.338 OA
ATOM      2  C   UNL d   1      13.411 -21.149  16.561  0.00  0.00     0.156 A 
ATOM      3  C   UNL d   1      13.068 -22.041  16.857  0.00  0.00     0.191 A 
ATOM      4  C   UNL d   1      13.080 -20.315  17.002  0.00  0.00     0.079 A 
ATOM      5  C   UNL d   1      12.406 -20.372  17.739  0.00  0.00     0.011 A 
ATOM      6  C   UNL d   1      12.063 -21.264  18.035  0.00  0.00     0.081 A 
ATOM      7  C   UNL d   1      12.071 -19.495  18.189  0.00  0.00     0.077 A 
ATOM      8  C   UNL d   1      11.362 -21.340  18.801  0.00  0.00     0.074 A 
ATOM      9  C   UNL d   1      11.370 -19.547  18.958  0.00  0.00     0.073 A 
ATOM     10  C   UNL d   1      11.013 -20.475  19.266  0.00  0.00     0.071 A 
ENDROOT
BRANCH   3  11
ATOM     11  C   UNL d   1      13.398 -22.875  16.416  0.00  0.00    -0.024 A 
ATOM     12  C   UNL d   1      12.942 -23.222  15.597  0.00  0.00     0.049 A 
ATOM     13  C   UNL d   1      13.272 -24.057  15.156  0.00  0.00     0.099 A 
ATOM     14  C   UNL d   1      14.059 -24.544  15.534  0.00  0.00     0.098 A 
ATOM     15  C   UNL d   1      14.516 -24.197  16.353  0.00  0.00     0.040 A 
ATOM     16  C   UNL d   1      14.186 -23.362  16.794  0.00  0.00     0.013 A 
BRANCH  13  17
ATOM     17  O   UNL d   1      12.816 -24.404  14.337  0.00  0.00    -0.358 OA
ATOM     18  H   UNL d   1      12.923 -24.140  13.786  0.00  0.00     0.217 HD
ENDBRANCH  13  17
BRANCH  14  19
ATOM     19  O   UNL d   1      14.390 -25.378  15.093  0.00  0.00    -0.358 OA
ATOM     20  H   UNL d   1      14.468 -25.895  15.426  0.00  0.00     0.217 HD
ENDBRANCH  14  19
ENDBRANCH   3  11
BRANCH   2  21
ATOM     21  O   UNL d   1      14.084 -21.092  15.824  0.00  0.00    -0.392 OA
ATOM     22  H   UNL d   1      14.688 -21.158  15.950  0.00  0.00     0.210 HD
ENDBRANCH   2  21
BRANCH   7  23
ATOM     23  O   UNL d   1      12.421 -18.609  17.885  0.00  0.00    -0.360 OA
ATOM     24  H   UNL d   1      12.618 -18.537  17.302  0.00  0.00     0.217 HD
ENDBRANCH   7  23
BRANCH  10  25
ATOM     25  O   UNL d   1      10.339 -20.536  20.002  0.00  0.00    -0.361 OA
ATOM     26  H   UNL d   1       9.734 -20.520  19.871  0.00  0.00     0.217 HD
ENDBRANCH  10  25
TORSDOF 6
ENDMDL
MODEL 5
REMARK VINA RESULT:    -9.581     25.736     26.622
REMARK INTER + INTRA:          -8.076
REMARK INTER:                 -11.541
REMARK INTRA:                   3.465
REMARK UNBOUND:                 3.465
REMARK  6 active torsions:
REMARK  status: ('A' for Active; 'I' for Inactive)
REMARK    1  A    between atoms: O_2  and  C_7 
REMARK    2  A    between atoms: O_3  and  C_13 
REMARK    3  A    between atoms: O_4  and  C_18 
REMARK    4  A    between atoms: O_5  and  C_19 
REMARK    5  A    between atoms: O_6  and  C_21 
REMARK    6  A    between atoms: C_8  and  C_12 
ROOT
ATOM      1  O   UNL d   1      -5.954 -40.444  17.194  0.00  0.00    -0.338 OA
ATOM      2  C   UNL d   1      -6.719 -40.112  15.676  0.00  0.00     0.156 A 
ATOM      3  C   UNL d   1      -5.926 -40.434  16.194  0.00  0.00     0.191 A 
ATOM      4  C   UNL d   1      -7.538 -39.801  16.157  0.00  0.00     0.079 A 
ATOM      5  C   UNL d   1      -7.565 -39.811  17.157  0.00  0.00     0.011 A 
ATOM      6  C   UNL d   1      -6.773 -40.132  17.675  0.00  0.00     0.081 A 
ATOM      7  C   UNL d   1      -8.426 -39.484  17.644  0.00  0.00     0.077 A 
ATOM      8  C   UNL d   1      -6.786 -40.149  18.717  0.00  0.00     0.074 A 
ATOM      9  C   UNL d   1      -8.461 -39.492  18.685  0.00  0.00     0.073 A 
ATOM     10  C   UNL d   1      -7.636 -39.826  19.225  0.00  0.00     0.071 A 
ENDROOT
BRANCH   3  11
ATOM     11  C   UNL d   1      -5.107 -40.745  15.713  0.00  0.00    -0.024 A 
ATOM     12  C   UNL d   1      -5.038 -41.694  15.405  0.00  0.00     0.049 A 
ATOM     13  C   UNL d   1      -4.219 -42.005  14.924  0.00  0.00     0.099 A 
ATOM     14  C   UNL d   1      -3.468 -41.368  14.751  0.00  0.00     0.098 A 
ATOM     15  C   UNL d   1      -3.537 -40.419  15.060  0.00  0.00     0.040 A 
ATOM     16  C   UNL d   1      -4.356 -40.107  15.541  0.00  0.00     0.013 A 
BRANCH  13  17
ATOM     17  O   UNL d   1      -4.150 -42.954  14.616  0.00  0.00    -0.358 OA
ATOM     18  H   UNL d   1      -3.704 -43.119  14.218  0.00  0.00     0.217 HD
ENDBRANCH  13  17
BRANCH  14  19
ATOM     19  O   UNL d   1      -2.648 -41.679  14.270  0.00  0.00    -0.358 OA
ATOM     20  H   UNL d   1      -2.260 -42.076  14.545  0.00  0.00     0.217 HD
ENDBRANCH  14  19
ENDBRANCH   3  11
BRANCH   2  21
ATOM     21  O   UNL d   1      -6.692 -40.102  14.676  0.00  0.00    -0.392 OA
ATOM     22  H   UNL d   1      -6.198 -40.328  14.377  0.00  0.00     0.210 HD
ENDBRANCH   2  21
BRANCH   7  23
ATOM     23  O   UNL d   1      -9.212 -39.165  17.115  0.00  0.00    -0.360 OA
ATOM     24  H   UNL d   1      -9.741 -39.019  17.404  0.00  0.00     0.217 HD
ENDBRANCH   7  23
BRANCH  10  25
ATOM     25  O   UNL d   1      -7.660 -39.838  20.224  0.00  0.00    -0.361 OA
ATOM     26  H   UNL d   1      -7.268 -40.199  20.540  0.00  0.00     0.217 HD
ENDBRANCH  10  25
TORSDOF 6
ENDMDL
