MODEL 1
REMARK VINA RESULT:    -6.479      0.000      0.000
REMARK INTER + INTRA:          -6.479
REMARK INTER:                  -6.479
REMARK INTRA:                   0.000
REMARK UNBOUND:                 0.000
REMARK  0 active torsions:
REMARK  status: ('A' for Active; 'I' for Inactive)
ROOT
ATOM      1  O   UNL d   1      39.895  17.856 -19.758  0.00  0.00    -0.265 OA
ATOM      2  O   UNL d   1      39.016  19.917 -17.115  0.00  0.00    -0.246 OA
ATOM      3  N   UNL d   1      38.129  18.458 -17.408  0.00  0.00    -0.286 N 
ATOM      4  N   UNL d   1      38.263  16.570 -19.128  0.00  0.00    -0.338 N 
ATOM      5  N   UNL d   1      39.455  18.886 -18.437  0.00  0.00    -0.269 N 
ATOM      6  N   UNL d   1      37.316  16.893 -17.867  0.00  0.00    -0.223 NA
ATOM      7  C   UNL d   1      38.568  17.428 -18.729  0.00  0.00     0.151 A 
ATOM      8  C   UNL d   1      37.980  17.628 -17.946  0.00  0.00     0.167 A 
ATOM      9  C   UNL d   1      39.306  18.057 -18.975  0.00  0.00     0.282 A 
ATOM     10  C   UNL d   1      38.867  19.087 -17.653  0.00  0.00     0.332 A 
ATOM     11  C   UNL d   1      37.491  16.239 -18.597  0.00  0.00     0.212 A 
ATOM     12  C   UNL d   1      37.540  18.659 -16.625  0.00  0.00     0.163 C 
ATOM     13  C   UNL d   1      38.663  16.117 -19.925  0.00  0.00     0.157 C 
ATOM     14  C   UNL d   1      40.193  19.515 -18.682  0.00  0.00     0.164 C 
ENDROOT
TORSDOF 0
ENDMDL
MODEL 2
REMARK VINA RESULT:    -6.347      1.098      2.191
REMARK INTER + INTRA:          -6.347
REMARK INTER:                  -6.347
REMARK INTRA:                   0.000
REMARK UNBOUND:                 0.000
REMARK  0 active torsions:
REMARK  status: ('A' for Active; 'I' for Inactive)
ROOT
ATOM      1  O   UNL d   1      37.497  16.977 -17.836  0.00  0.00    -0.265 OA
ATOM      2  O   UNL d   1      38.952  20.007 -16.999  0.00  0.00    -0.246 OA
ATOM      3  N   UNL d   1      39.519  19.126 -18.377  0.00  0.00    -0.286 N 
ATOM      4  N   UNL d   1      38.896  16.910 -19.494  0.00  0.00    -0.338 N 
ATOM      5  N   UNL d   1      38.224  18.492 -17.417  0.00  0.00    -0.269 N 
ATOM      6  N   UNL d   1      39.981  18.063 -19.784  0.00  0.00    -0.223 NA
ATOM      7  C   UNL d   1      38.792  17.610 -18.796  0.00  0.00     0.151 A 
ATOM      8  C   UNL d   1      39.466  18.327 -18.976  0.00  0.00     0.167 A 
ATOM      9  C   UNL d   1      38.171  17.693 -18.016  0.00  0.00     0.282 A 
ATOM     10  C   UNL d   1      38.898  19.208 -17.598  0.00  0.00     0.332 A 
ATOM     11  C   UNL d   1      39.630  17.190 -20.104  0.00  0.00     0.212 A 
ATOM     12  C   UNL d   1      40.193  19.842 -18.558  0.00  0.00     0.163 C 
ATOM     13  C   UNL d   1      38.357  16.072 -19.570  0.00  0.00     0.157 C 
ATOM     14  C   UNL d   1      37.603  18.575 -16.638  0.00  0.00     0.164 C 
ENDROOT
TORSDOF 0
ENDMDL
MODEL 3
REMARK VINA RESULT:    -6.343      1.307      2.931
REMARK INTER + INTRA:          -6.343
REMARK INTER:                  -6.343
REMARK INTRA:                   0.000
REMARK UNBOUND:                 0.000
REMARK  0 active torsions:
REMARK  status: ('A' for Active; 'I' for Inactive)
ROOT
ATOM      1  O   UNL d   1      39.137  19.707 -17.738  0.00  0.00    -0.265 OA
ATOM      2  O   UNL d   1      37.292  16.777 -17.853  0.00  0.00    -0.246 OA
ATOM      3  N   UNL d   1      38.552  17.053 -19.009  0.00  0.00    -0.286 N 
ATOM      4  N   UNL d   1      40.222  18.939 -19.454  0.00  0.00    -0.338 N 
ATOM      5  N   UNL d   1      38.215  18.242 -17.796  0.00  0.00    -0.269 N 
ATOM      6  N   UNL d   1      39.908  17.515 -20.136  0.00  0.00    -0.223 NA
ATOM      7  C   UNL d   1      39.474  18.518 -18.952  0.00  0.00     0.151 A 
ATOM      8  C   UNL d   1      39.279  17.634 -19.376  0.00  0.00     0.167 A 
ATOM      9  C   UNL d   1      38.942  18.822 -18.162  0.00  0.00     0.282 A 
ATOM     10  C   UNL d   1      38.020  17.357 -18.219  0.00  0.00     0.332 A 
ATOM     11  C   UNL d   1      40.489  18.320 -20.185  0.00  0.00     0.212 A 
ATOM     12  C   UNL d   1      38.357  16.169 -19.433  0.00  0.00     0.163 C 
ATOM     13  C   UNL d   1      40.633  19.829 -19.260  0.00  0.00     0.157 C 
ATOM     14  C   UNL d   1      37.682  18.546 -17.006  0.00  0.00     0.164 C 
ENDROOT
TORSDOF 0
ENDMDL
MODEL 4
REMARK VINA RESULT:    -6.282      1.092      2.684
REMARK INTER + INTRA:          -6.282
REMARK INTER:                  -6.282
REMARK INTRA:                   0.000
REMARK UNBOUND:                 0.000
REMARK  0 active torsions:
REMARK  status: ('A' for Active; 'I' for Inactive)
ROOT
ATOM      1  O   UNL d   1      40.270  18.956 -19.020  0.00  0.00    -0.265 OA
ATOM      2  O   UNL d   1      38.662  16.063 -20.042  0.00  0.00    -0.246 OA
ATOM      3  N   UNL d   1      38.072  16.945 -18.673  0.00  0.00    -0.286 N 
ATOM      4  N   UNL d   1      38.777  19.077 -17.449  0.00  0.00    -0.338 N 
ATOM      5  N   UNL d   1      39.466  17.509 -19.531  0.00  0.00    -0.269 N 
ATOM      6  N   UNL d   1      37.597  17.998 -17.263  0.00  0.00    -0.223 NA
ATOM      7  C   UNL d   1      38.876  18.391 -18.162  0.00  0.00     0.151 A 
ATOM      8  C   UNL d   1      38.143  17.721 -18.046  0.00  0.00     0.167 A 
ATOM      9  C   UNL d   1      39.538  18.285 -18.904  0.00  0.00     0.282 A 
ATOM     10  C   UNL d   1      38.733  16.839 -19.415  0.00  0.00     0.332 A 
ATOM     11  C   UNL d   1      37.988  18.835 -16.895  0.00  0.00     0.212 A 
ATOM     12  C   UNL d   1      37.339  16.274 -18.557  0.00  0.00     0.163 C 
ATOM     13  C   UNL d   1      39.367  19.872 -17.313  0.00  0.00     0.157 C 
ATOM     14  C   UNL d   1      40.128  17.404 -20.273  0.00  0.00     0.164 C 
ENDROOT
TORSDOF 0
ENDMDL
MODEL 5
REMARK VINA RESULT:    -6.218     32.959     34.077
REMARK INTER + INTRA:          -6.218
REMARK INTER:                  -6.218
REMARK INTRA:                   0.000
REMARK UNBOUND:                 0.000
REMARK  0 active torsions:
REMARK  status: ('A' for Active; 'I' for Inactive)
ROOT
ATOM      1  O   UNL d   1      15.598  42.768 -14.620  0.00  0.00    -0.265 OA
ATOM      2  O   UNL d   1      13.779  43.433 -17.491  0.00  0.00    -0.246 OA
ATOM      3  N   UNL d   1      13.891  41.811 -16.893  0.00  0.00    -0.286 N 
ATOM      4  N   UNL d   1      15.036  40.690 -14.900  0.00  0.00    -0.338 N 
ATOM      5  N   UNL d   1      14.689  43.100 -16.055  0.00  0.00    -0.269 N 
ATOM      6  N   UNL d   1      14.119  40.177 -16.120  0.00  0.00    -0.223 NA
ATOM      7  C   UNL d   1      14.801  41.479 -15.457  0.00  0.00     0.151 A 
ATOM      8  C   UNL d   1      14.232  41.160 -16.215  0.00  0.00     0.167 A 
ATOM      9  C   UNL d   1      15.029  42.449 -15.377  0.00  0.00     0.282 A 
ATOM     10  C   UNL d   1      14.120  42.781 -16.813  0.00  0.00     0.332 A 
ATOM     11  C   UNL d   1      14.615  39.887 -15.308  0.00  0.00     0.212 A 
ATOM     12  C   UNL d   1      13.322  41.492 -17.651  0.00  0.00     0.163 C 
ATOM     13  C   UNL d   1      15.596  40.702 -14.072  0.00  0.00     0.157 C 
ATOM     14  C   UNL d   1      14.917  44.071 -15.975  0.00  0.00     0.164 C 
ENDROOT
TORSDOF 0
ENDMDL
