MODEL 1
REMARK VINA RESULT:   -11.687      0.000      0.000
REMARK INTER + INTRA:          -7.068
REMARK INTER:                 -15.549
REMARK INTRA:                   8.481
REMARK UNBOUND:                 8.718
REMARK  9 active torsions:
REMARK  status: ('A' for Active; 'I' for Inactive)
REMARK    1  A    between atoms: O_3  and  C_17 
REMARK    2  A    between atoms: O_4  and  C_18 
REMARK    3  A    between atoms: O_5  and  C_19 
REMARK    4  A    between atoms: O_7  and  C_32 
REMARK    5  A    between atoms: O_9  and  C_36 
REMARK    6  A    between atoms: O_10  and  C_40 
REMARK    7  A    between atoms: C_11  and  C_13 
REMARK    8  A    between atoms: C_15  and  C_20 
REMARK    9  A    between atoms: C_22  and  C_29 
ROOT
ATOM      1  O   UNL d   1       9.018   0.440 -13.509  0.00  0.00    -0.308 OA
ATOM      2  O   UNL d   1       8.743  -2.013 -15.333  0.00  0.00    -0.287 OA
ATOM      3  C   UNL d   1       7.738   1.218 -14.433  0.00  0.00     0.045 A 
ATOM      4  C   UNL d   1       8.323   0.421 -14.285  0.00  0.00     0.107 A 
ATOM      5  C   UNL d   1       8.236  -0.380 -14.877  0.00  0.00     0.082 A 
ATOM      6  C   UNL d   1       7.066   1.214 -15.174  0.00  0.00     0.082 A 
ATOM      7  C   UNL d   1       7.564  -0.384 -15.618  0.00  0.00     0.085 A 
ATOM      8  C   UNL d   1       6.979   0.413 -15.766  0.00  0.00     0.075 A 
ATOM      9  C   UNL d   1       9.631  -0.386 -13.349  0.00  0.00     0.090 A 
ATOM     10  C   UNL d   1       8.839  -1.217 -14.734  0.00  0.00     0.190 A 
ATOM     11  C   UNL d   1       9.541  -1.221 -13.966  0.00  0.00     0.094 A 
ENDROOT
BRANCH   3  12
ATOM     12  C   UNL d   1       7.824   2.019 -13.841  0.00  0.00     0.014 A 
ATOM     13  C   UNL d   1       8.479   2.740 -14.068  0.00  0.00     0.029 A 
ATOM     14  C   UNL d   1       8.566   3.541 -13.476  0.00  0.00    -0.001 A 
ATOM     15  C   UNL d   1       7.998   3.622 -12.657  0.00  0.00     0.017 A 
ATOM     16  C   UNL d   1       7.342   2.901 -12.431  0.00  0.00     0.038 A 
ATOM     17  C   UNL d   1       7.256   2.100 -13.023  0.00  0.00     0.076 A 
BRANCH  14  18
ATOM     18  C   UNL d   1       9.221   4.262 -13.702  0.00  0.00     0.090 A 
ATOM     19  O   UNL d   1      10.166   4.198 -13.380  0.00  0.00    -0.309 OA
ATOM     20  C   UNL d   1      10.821   4.919 -13.607  0.00  0.00     0.095 A 
ATOM     21  C   UNL d   1      10.532   5.703 -14.156  0.00  0.00     0.081 A 
ATOM     22  C   UNL d   1      11.802   4.839 -13.264  0.00  0.00     0.075 A 
ATOM     23  C   UNL d   1       9.587   5.767 -14.478  0.00  0.00     0.190 A 
ATOM     24  C   UNL d   1      11.203   6.462 -14.400  0.00  0.00     0.085 A 
ATOM     25  O   UNL d   1       9.298   6.551 -15.027  0.00  0.00    -0.287 OA
ATOM     26  C   UNL d   1       8.932   5.046 -14.251  0.00  0.00     0.094 A 
ATOM     27  C   UNL d   1      12.188   6.402 -14.067  0.00  0.00     0.074 A 
ATOM     28  C   UNL d   1      12.490   5.586 -13.496  0.00  0.00     0.071 A 
BRANCH  24  29
ATOM     29  O   UNL d   1      10.903   7.241 -14.949  0.00  0.00    -0.360 OA
ATOM     30  H   UNL d   1      10.489   7.642 -14.719  0.00  0.00     0.217 HD
ENDBRANCH  24  29
BRANCH  28  31
ATOM     31  O   UNL d   1      13.434   5.519 -13.171  0.00  0.00    -0.361 OA
ATOM     32  H   UNL d   1      13.851   5.944 -13.343  0.00  0.00     0.217 HD
ENDBRANCH  28  31
ENDBRANCH  14  18
BRANCH  17  33
ATOM     33  O   UNL d   1       6.600   1.379 -12.796  0.00  0.00    -0.360 OA
ATOM     34  H   UNL d   1       6.041   1.373 -13.064  0.00  0.00     0.217 HD
ENDBRANCH  17  33
ENDBRANCH   3  12
BRANCH   6  35
ATOM     35  O   UNL d   1       6.480   2.011 -15.322  0.00  0.00    -0.360 OA
ATOM     36  H   UNL d   1       6.673   2.574 -15.148  0.00  0.00     0.217 HD
ENDBRANCH   6  35
BRANCH   9  37
ATOM     37  C   UNL d   1      10.302  -0.378 -12.607  0.00  0.00    -0.002 A 
ATOM     38  C   UNL d   1      11.019   0.320 -12.589  0.00  0.00     0.017 A 
ATOM     39  C   UNL d   1      11.690   0.328 -11.848  0.00  0.00     0.037 A 
ATOM     40  C   UNL d   1      11.644  -0.360 -11.124  0.00  0.00     0.065 A 
ATOM     41  C   UNL d   1      10.927  -1.058 -11.142  0.00  0.00     0.037 A 
ATOM     42  C   UNL d   1      10.256  -1.066 -11.884  0.00  0.00     0.017 A 
BRANCH  40  43
ATOM     43  O   UNL d   1      12.315  -0.352 -10.383  0.00  0.00    -0.361 OA
ATOM     44  H   UNL d   1      12.314   0.110  -9.968  0.00  0.00     0.217 HD
ENDBRANCH  40  43
ENDBRANCH   9  37
BRANCH   7  45
ATOM     45  O   UNL d   1       7.478  -1.186 -16.210  0.00  0.00    -0.360 OA
ATOM     46  H   UNL d   1       7.301  -1.117 -16.800  0.00  0.00     0.217 HD
ENDBRANCH   7  45
TORSDOF 9
ENDMDL
MODEL 2
REMARK VINA RESULT:   -11.624      3.071      5.345
REMARK INTER + INTRA:          -6.983
REMARK INTER:                 -15.460
REMARK INTRA:                   8.477
REMARK UNBOUND:                 8.718
REMARK  9 active torsions:
REMARK  status: ('A' for Active; 'I' for Inactive)
REMARK    1  A    between atoms: O_3  and  C_17 
REMARK    2  A    between atoms: O_4  and  C_18 
REMARK    3  A    between atoms: O_5  and  C_19 
REMARK    4  A    between atoms: O_7  and  C_32 
REMARK    5  A    between atoms: O_9  and  C_36 
REMARK    6  A    between atoms: O_10  and  C_40 
REMARK    7  A    between atoms: C_11  and  C_13 
REMARK    8  A    between atoms: C_15  and  C_20 
REMARK    9  A    between atoms: C_22  and  C_29 
ROOT
ATOM      1  O   UNL d   1      10.065   0.652 -13.165  0.00  0.00    -0.308 OA
ATOM      2  O   UNL d   1      11.346  -0.983 -10.905  0.00  0.00    -0.287 OA
ATOM      3  C   UNL d   1      11.515   1.650 -13.207  0.00  0.00     0.045 A 
ATOM      4  C   UNL d   1      11.016   0.882 -12.806  0.00  0.00     0.107 A 
ATOM      5  C   UNL d   1      11.430   0.347 -12.069  0.00  0.00     0.082 A 
ATOM      6  C   UNL d   1      12.428   1.882 -12.873  0.00  0.00     0.082 A 
ATOM      7  C   UNL d   1      12.343   0.580 -11.734  0.00  0.00     0.085 A 
ATOM      8  C   UNL d   1      12.842   1.347 -12.136  0.00  0.00     0.075 A 
ATOM      9  C   UNL d   1       9.539  -0.146 -12.751  0.00  0.00     0.090 A 
ATOM     10  C   UNL d   1      10.922  -0.455 -11.641  0.00  0.00     0.190 A 
ATOM     11  C   UNL d   1       9.971  -0.704 -11.984  0.00  0.00     0.094 A 
ENDROOT
BRANCH   3  12
ATOM     12  C   UNL d   1      11.101   2.185 -13.944  0.00  0.00     0.014 A 
ATOM     13  C   UNL d   1      11.212   1.896 -14.895  0.00  0.00     0.029 A 
ATOM     14  C   UNL d   1      10.798   2.431 -15.631  0.00  0.00    -0.001 A 
ATOM     15  C   UNL d   1      10.273   3.254 -15.417  0.00  0.00     0.017 A 
ATOM     16  C   UNL d   1      10.162   3.543 -14.466  0.00  0.00     0.038 A 
ATOM     17  C   UNL d   1      10.576   3.008 -13.730  0.00  0.00     0.076 A 
BRANCH  14  18
ATOM     18  C   UNL d   1      10.909   2.142 -16.582  0.00  0.00     0.090 A 
ATOM     19  O   UNL d   1      10.369   1.379 -16.939  0.00  0.00    -0.309 OA
ATOM     20  C   UNL d   1      10.480   1.090 -17.890  0.00  0.00     0.095 A 
ATOM     21  C   UNL d   1      11.130   1.564 -18.484  0.00  0.00     0.081 A 
ATOM     22  C   UNL d   1       9.911   0.294 -18.248  0.00  0.00     0.075 A 
ATOM     23  C   UNL d   1      11.670   2.327 -18.127  0.00  0.00     0.190 A 
ATOM     24  C   UNL d   1      11.257   1.275 -19.477  0.00  0.00     0.085 A 
ATOM     25  O   UNL d   1      12.320   2.801 -18.721  0.00  0.00    -0.287 OA
ATOM     26  C   UNL d   1      11.559   2.616 -17.176  0.00  0.00     0.094 A 
ATOM     27  C   UNL d   1      10.698   0.481 -19.856  0.00  0.00     0.074 A 
ATOM     28  C   UNL d   1      10.021  -0.013 -19.237  0.00  0.00     0.071 A 
BRANCH  24  29
ATOM     29  O   UNL d   1      11.909   1.755 -20.062  0.00  0.00    -0.360 OA
ATOM     30  H   UNL d   1      12.127   2.311 -19.892  0.00  0.00     0.217 HD
ENDBRANCH  24  29
BRANCH  28  31
ATOM     31  O   UNL d   1       9.480  -0.776 -19.591  0.00  0.00    -0.361 OA
ATOM     32  H   UNL d   1       9.755  -1.316 -19.722  0.00  0.00     0.217 HD
ENDBRANCH  28  31
ENDBRANCH  14  18
BRANCH  17  33
ATOM     33  O   UNL d   1      10.466   3.297 -12.779  0.00  0.00    -0.360 OA
ATOM     34  H   UNL d   1      10.654   2.927 -12.318  0.00  0.00     0.217 HD
ENDBRANCH  17  33
ENDBRANCH   3  12
BRANCH   6  35
ATOM     35  O   UNL d   1      12.927   2.650 -13.275  0.00  0.00    -0.360 OA
ATOM     36  H   UNL d   1      12.638   3.189 -13.377  0.00  0.00     0.217 HD
ENDBRANCH   6  35
BRANCH   9  37
ATOM     37  C   UNL d   1       8.626  -0.376 -13.089  0.00  0.00    -0.002 A 
ATOM     38  C   UNL d   1       8.503  -0.665 -14.038  0.00  0.00     0.017 A 
ATOM     39  C   UNL d   1       7.591  -0.895 -14.376  0.00  0.00     0.037 A 
ATOM     40  C   UNL d   1       6.801  -0.835 -13.765  0.00  0.00     0.065 A 
ATOM     41  C   UNL d   1       6.925  -0.545 -12.816  0.00  0.00     0.037 A 
ATOM     42  C   UNL d   1       7.838  -0.316 -12.478  0.00  0.00     0.017 A 
BRANCH  40  43
ATOM     43  O   UNL d   1       5.888  -1.064 -14.103  0.00  0.00    -0.361 OA
ATOM     44  H   UNL d   1       5.770  -1.049 -14.712  0.00  0.00     0.217 HD
ENDBRANCH  40  43
ENDBRANCH   9  37
BRANCH   7  45
ATOM     45  O   UNL d   1      12.757   0.045 -10.998  0.00  0.00    -0.360 OA
ATOM     46  H   UNL d   1      12.676   0.216 -10.407  0.00  0.00     0.217 HD
ENDBRANCH   7  45
TORSDOF 9
ENDMDL
MODEL 3
REMARK VINA RESULT:   -11.378      1.841      3.542
REMARK INTER + INTRA:          -6.651
REMARK INTER:                 -15.809
REMARK INTRA:                   9.158
REMARK UNBOUND:                 8.718
REMARK  9 active torsions:
REMARK  status: ('A' for Active; 'I' for Inactive)
REMARK    1  A    between atoms: O_3  and  C_17 
REMARK    2  A    between atoms: O_4  and  C_18 
REMARK    3  A    between atoms: O_5  and  C_19 
REMARK    4  A    between atoms: O_7  and  C_32 
REMARK    5  A    between atoms: O_9  and  C_36 
REMARK    6  A    between atoms: O_10  and  C_40 
REMARK    7  A    between atoms: C_11  and  C_13 
REMARK    8  A    between atoms: C_15  and  C_20 
REMARK    9  A    between atoms: C_22  and  C_29 
ROOT
ATOM      1  O   UNL d   1       9.182   0.589 -14.459  0.00  0.00    -0.308 OA
ATOM      2  O   UNL d   1       6.591  -0.979 -13.963  0.00  0.00    -0.287 OA
ATOM      3  C   UNL d   1       9.223   0.982 -12.743  0.00  0.00     0.045 A 
ATOM      4  C   UNL d   1       8.766   0.524 -13.506  0.00  0.00     0.107 A 
ATOM      5  C   UNL d   1       7.922   0.012 -13.348  0.00  0.00     0.082 A 
ATOM      6  C   UNL d   1       8.835   0.928 -11.823  0.00  0.00     0.082 A 
ATOM      7  C   UNL d   1       7.534  -0.042 -12.428  0.00  0.00     0.085 A 
ATOM      8  C   UNL d   1       7.991   0.416 -11.665  0.00  0.00     0.075 A 
ATOM      9  C   UNL d   1       8.712   0.114 -15.258  0.00  0.00     0.090 A 
ATOM     10  C   UNL d   1       7.435  -0.470 -14.133  0.00  0.00     0.190 A 
ATOM     11  C   UNL d   1       7.832  -0.419 -15.094  0.00  0.00     0.094 A 
ENDROOT
BRANCH   3  12
ATOM     12  C   UNL d   1      10.067   1.494 -12.901  0.00  0.00     0.014 A 
ATOM     13  C   UNL d   1      10.026   2.453 -13.180  0.00  0.00     0.029 A 
ATOM     14  C   UNL d   1      10.870   2.965 -13.338  0.00  0.00    -0.001 A 
ATOM     15  C   UNL d   1      11.756   2.518 -13.216  0.00  0.00     0.017 A 
ATOM     16  C   UNL d   1      11.798   1.558 -12.937  0.00  0.00     0.038 A 
ATOM     17  C   UNL d   1      10.954   1.046 -12.779  0.00  0.00     0.076 A 
BRANCH  14  18
ATOM     18  C   UNL d   1      10.829   3.924 -13.617  0.00  0.00     0.090 A 
ATOM     19  O   UNL d   1      11.629   4.513 -13.503  0.00  0.00    -0.309 OA
ATOM     20  C   UNL d   1      11.587   5.473 -13.782  0.00  0.00     0.095 A 
ATOM     21  C   UNL d   1      10.745   5.843 -14.175  0.00  0.00     0.081 A 
ATOM     22  C   UNL d   1      12.429   6.074 -13.658  0.00  0.00     0.075 A 
ATOM     23  C   UNL d   1       9.945   5.254 -14.289  0.00  0.00     0.190 A 
ATOM     24  C   UNL d   1      10.687   6.840 -14.471  0.00  0.00     0.085 A 
ATOM     25  O   UNL d   1       9.104   5.624 -14.682  0.00  0.00    -0.287 OA
ATOM     26  C   UNL d   1       9.987   4.295 -14.010  0.00  0.00     0.094 A 
ATOM     27  C   UNL d   1      11.516   7.460 -14.355  0.00  0.00     0.074 A 
ATOM     28  C   UNL d   1      12.393   7.075 -13.946  0.00  0.00     0.071 A 
BRANCH  24  29
ATOM     29  O   UNL d   1       9.840   7.200 -14.862  0.00  0.00    -0.360 OA
ATOM     30  H   UNL d   1       9.853   7.713 -15.211  0.00  0.00     0.217 HD
ENDBRANCH  24  29
BRANCH  28  31
ATOM     31  O   UNL d   1      13.195   7.660 -13.831  0.00  0.00    -0.361 OA
ATOM     32  H   UNL d   1      13.349   7.869 -13.267  0.00  0.00     0.217 HD
ENDBRANCH  28  31
ENDBRANCH  14  18
BRANCH  17  33
ATOM     33  O   UNL d   1      10.995   0.087 -12.500  0.00  0.00    -0.360 OA
ATOM     34  H   UNL d   1      11.261  -0.068 -11.961  0.00  0.00     0.217 HD
ENDBRANCH  17  33
ENDBRANCH   3  12
BRANCH   6  35
ATOM     35  O   UNL d   1       9.292   1.386 -11.060  0.00  0.00    -0.360 OA
ATOM     36  H   UNL d   1       8.992   1.820 -10.735  0.00  0.00     0.217 HD
ENDBRANCH   6  35
BRANCH   9  37
ATOM     37  C   UNL d   1       9.103   0.171 -16.177  0.00  0.00    -0.002 A 
ATOM     38  C   UNL d   1       8.854  -0.508 -16.868  0.00  0.00     0.017 A 
ATOM     39  C   UNL d   1       9.245  -0.452 -17.787  0.00  0.00     0.037 A 
ATOM     40  C   UNL d   1       9.884   0.282 -18.014  0.00  0.00     0.065 A 
ATOM     41  C   UNL d   1      10.134   0.961 -17.323  0.00  0.00     0.037 A 
ATOM     42  C   UNL d   1       9.742   0.905 -16.404  0.00  0.00     0.017 A 
BRANCH  40  43
ATOM     43  O   UNL d   1      10.276   0.339 -18.933  0.00  0.00    -0.361 OA
ATOM     44  H   UNL d   1      10.027   0.722 -19.353  0.00  0.00     0.217 HD
ENDBRANCH  40  43
ENDBRANCH   9  37
BRANCH   7  45
ATOM     45  O   UNL d   1       6.690  -0.554 -12.270  0.00  0.00    -0.360 OA
ATOM     46  H   UNL d   1       6.711  -1.109 -11.995  0.00  0.00     0.217 HD
ENDBRANCH   7  45
TORSDOF 9
ENDMDL
MODEL 4
REMARK VINA RESULT:   -11.377      2.031      5.999
REMARK INTER + INTRA:          -6.649
REMARK INTER:                 -15.493
REMARK INTRA:                   8.844
REMARK UNBOUND:                 8.718
REMARK  9 active torsions:
REMARK  status: ('A' for Active; 'I' for Inactive)
REMARK    1  A    between atoms: O_3  and  C_17 
REMARK    2  A    between atoms: O_4  and  C_18 
REMARK    3  A    between atoms: O_5  and  C_19 
REMARK    4  A    between atoms: O_7  and  C_32 
REMARK    5  A    between atoms: O_9  and  C_36 
REMARK    6  A    between atoms: O_10  and  C_40 
REMARK    7  A    between atoms: C_11  and  C_13 
REMARK    8  A    between atoms: C_15  and  C_20 
REMARK    9  A    between atoms: C_22  and  C_29 
ROOT
ATOM      1  O   UNL d   1      11.541   4.372 -14.141  0.00  0.00    -0.308 OA
ATOM      2  O   UNL d   1      11.545   7.386 -13.565  0.00  0.00    -0.287 OA
ATOM      3  C   UNL d   1      10.229   4.635 -15.285  0.00  0.00     0.045 A 
ATOM      4  C   UNL d   1      10.876   5.013 -14.624  0.00  0.00     0.107 A 
ATOM      5  C   UNL d   1      10.881   5.995 -14.433  0.00  0.00     0.082 A 
ATOM      6  C   UNL d   1       9.585   5.238 -15.756  0.00  0.00     0.082 A 
ATOM      7  C   UNL d   1      10.237   6.598 -14.904  0.00  0.00     0.085 A 
ATOM      8  C   UNL d   1       9.590   6.220 -15.565  0.00  0.00     0.075 A 
ATOM      9  C   UNL d   1      12.218   4.758 -13.451  0.00  0.00     0.090 A 
ATOM     10  C   UNL d   1      11.549   6.403 -13.747  0.00  0.00     0.190 A 
ATOM     11  C   UNL d   1      12.223   5.781 -13.253  0.00  0.00     0.094 A 
ENDROOT
BRANCH   3  12
ATOM     12  C   UNL d   1      10.224   3.653 -15.475  0.00  0.00     0.014 A 
ATOM     13  C   UNL d   1       9.656   3.040 -14.927  0.00  0.00     0.029 A 
ATOM     14  C   UNL d   1       9.652   2.058 -15.117  0.00  0.00    -0.001 A 
ATOM     15  C   UNL d   1      10.216   1.690 -15.856  0.00  0.00     0.017 A 
ATOM     16  C   UNL d   1      10.784   2.303 -16.405  0.00  0.00     0.038 A 
ATOM     17  C   UNL d   1      10.788   3.285 -16.214  0.00  0.00     0.076 A 
BRANCH  14  18
ATOM     18  C   UNL d   1       9.083   1.445 -14.568  0.00  0.00     0.090 A 
ATOM     19  O   UNL d   1       9.196   1.414 -13.575  0.00  0.00    -0.309 OA
ATOM     20  C   UNL d   1       8.627   0.801 -13.026  0.00  0.00     0.095 A 
ATOM     21  C   UNL d   1       7.947   0.219 -13.471  0.00  0.00     0.081 A 
ATOM     22  C   UNL d   1       8.756   0.780 -11.992  0.00  0.00     0.075 A 
ATOM     23  C   UNL d   1       7.835   0.249 -14.464  0.00  0.00     0.190 A 
ATOM     24  C   UNL d   1       7.348  -0.425 -12.913  0.00  0.00     0.085 A 
ATOM     25  O   UNL d   1       7.154  -0.333 -14.909  0.00  0.00    -0.287 OA
ATOM     26  C   UNL d   1       8.403   0.862 -15.013  0.00  0.00     0.094 A 
ATOM     27  C   UNL d   1       7.459  -0.463 -11.877  0.00  0.00     0.074 A 
ATOM     28  C   UNL d   1       8.167   0.144 -11.414  0.00  0.00     0.071 A 
BRANCH  24  29
ATOM     29  O   UNL d   1       6.670  -1.003 -13.367  0.00  0.00    -0.360 OA
ATOM     30  H   UNL d   1       6.114  -1.093 -13.107  0.00  0.00     0.217 HD
ENDBRANCH  24  29
BRANCH  28  31
ATOM     31  O   UNL d   1       8.283   0.116 -10.421  0.00  0.00    -0.361 OA
ATOM     32  H   UNL d   1       8.659  -0.304 -10.164  0.00  0.00     0.217 HD
ENDBRANCH  28  31
ENDBRANCH  14  18
BRANCH  17  33
ATOM     33  O   UNL d   1      11.356   3.898 -16.763  0.00  0.00    -0.360 OA
ATOM     34  H   UNL d   1      11.850   3.675 -17.066  0.00  0.00     0.217 HD
ENDBRANCH  17  33
ENDBRANCH   3  12
BRANCH   6  35
ATOM     35  O   UNL d   1       8.937   4.860 -16.417  0.00  0.00    -0.360 OA
ATOM     36  H   UNL d   1       8.457   4.520 -16.221  0.00  0.00     0.217 HD
ENDBRANCH   6  35
BRANCH   9  37
ATOM     37  C   UNL d   1      12.860   4.151 -12.982  0.00  0.00    -0.002 A 
ATOM     38  C   UNL d   1      12.678   3.169 -12.940  0.00  0.00     0.017 A 
ATOM     39  C   UNL d   1      13.319   2.561 -12.471  0.00  0.00     0.037 A 
ATOM     40  C   UNL d   1      14.142   2.936 -12.045  0.00  0.00     0.065 A 
ATOM     41  C   UNL d   1      14.324   3.919 -12.087  0.00  0.00     0.037 A 
ATOM     42  C   UNL d   1      13.682   4.526 -12.556  0.00  0.00     0.017 A 
BRANCH  40  43
ATOM     43  O   UNL d   1      14.784   2.329 -11.576  0.00  0.00    -0.361 OA
ATOM     44  H   UNL d   1      14.823   2.337 -10.957  0.00  0.00     0.217 HD
ENDBRANCH  40  43
ENDBRANCH   9  37
BRANCH   7  45
ATOM     45  O   UNL d   1      10.242   7.580 -14.714  0.00  0.00    -0.360 OA
ATOM     46  H   UNL d   1       9.708   7.895 -14.696  0.00  0.00     0.217 HD
ENDBRANCH   7  45
TORSDOF 9
ENDMDL
MODEL 5
REMARK VINA RESULT:   -11.339     39.807     41.930
REMARK INTER + INTRA:          -6.599
REMARK INTER:                 -15.118
REMARK INTRA:                   8.519
REMARK UNBOUND:                 8.718
REMARK  9 active torsions:
REMARK  status: ('A' for Active; 'I' for Inactive)
REMARK    1  A    between atoms: O_3  and  C_17 
REMARK    2  A    between atoms: O_4  and  C_18 
REMARK    3  A    between atoms: O_5  and  C_19 
REMARK    4  A    between atoms: O_7  and  C_32 
REMARK    5  A    between atoms: O_9  and  C_36 
REMARK    6  A    between atoms: O_10  and  C_40 
REMARK    7  A    between atoms: C_11  and  C_13 
REMARK    8  A    between atoms: C_15  and  C_20 
REMARK    9  A    between atoms: C_22  and  C_29 
ROOT
ATOM      1  O   UNL d   1      -0.198   2.861  25.556  0.00  0.00    -0.308 OA
ATOM      2  O   UNL d   1       0.827   2.984  22.666  0.00  0.00    -0.287 OA
ATOM      3  C   UNL d   1      -1.268   4.209  25.189  0.00  0.00     0.045 A 
ATOM      4  C   UNL d   1      -0.568   3.565  24.883  0.00  0.00     0.107 A 
ATOM      5  C   UNL d   1      -0.231   3.602  23.942  0.00  0.00     0.082 A 
ATOM      6  C   UNL d   1      -1.633   4.890  24.554  0.00  0.00     0.082 A 
ATOM      7  C   UNL d   1      -0.596   4.283  23.307  0.00  0.00     0.085 A 
ATOM      8  C   UNL d   1      -1.297   4.928  23.613  0.00  0.00     0.075 A 
ATOM      9  C   UNL d   1       0.533   2.187  25.244  0.00  0.00     0.090 A 
ATOM     10  C   UNL d   1       0.498   2.938  23.609  0.00  0.00     0.190 A 
ATOM     11  C   UNL d   1       0.883   2.226  24.263  0.00  0.00     0.094 A 
ENDROOT
BRANCH   3  12
ATOM     12  C   UNL d   1      -1.605   4.172  26.130  0.00  0.00     0.014 A 
ATOM     13  C   UNL d   1      -2.374   3.577  26.363  0.00  0.00     0.029 A 
ATOM     14  C   UNL d   1      -2.710   3.539  27.304  0.00  0.00    -0.001 A 
ATOM     15  C   UNL d   1      -2.278   4.098  28.012  0.00  0.00     0.017 A 
ATOM     16  C   UNL d   1      -1.509   4.693  27.779  0.00  0.00     0.038 A 
ATOM     17  C   UNL d   1      -1.172   4.730  26.838  0.00  0.00     0.076 A 
BRANCH  14  18
ATOM     18  C   UNL d   1      -3.479   2.944  27.537  0.00  0.00     0.090 A 
ATOM     19  O   UNL d   1      -3.327   1.967  27.685  0.00  0.00    -0.309 OA
ATOM     20  C   UNL d   1      -4.096   1.371  27.918  0.00  0.00     0.095 A 
ATOM     21  C   UNL d   1      -5.016   1.753  28.003  0.00  0.00     0.081 A 
ATOM     22  C   UNL d   1      -3.923   0.355  28.069  0.00  0.00     0.075 A 
ATOM     23  C   UNL d   1      -5.168   2.730  27.855  0.00  0.00     0.190 A 
ATOM     24  C   UNL d   1      -5.827   1.145  28.245  0.00  0.00     0.085 A 
ATOM     25  O   UNL d   1      -6.088   3.112  27.940  0.00  0.00    -0.287 OA
ATOM     26  C   UNL d   1      -4.399   3.326  27.622  0.00  0.00     0.094 A 
ATOM     27  C   UNL d   1      -5.677   0.126  28.401  0.00  0.00     0.074 A 
ATOM     28  C   UNL d   1      -4.718  -0.272  28.312  0.00  0.00     0.071 A 
BRANCH  24  29
ATOM     29  O   UNL d   1      -6.743   1.538  28.328  0.00  0.00    -0.360 OA
ATOM     30  H   UNL d   1      -7.135   1.513  27.848  0.00  0.00     0.217 HD
ENDBRANCH  24  29
BRANCH  28  31
ATOM     31  O   UNL d   1      -4.563  -1.249  28.460  0.00  0.00    -0.361 OA
ATOM     32  H   UNL d   1      -4.809  -1.531  28.954  0.00  0.00     0.217 HD
ENDBRANCH  28  31
ENDBRANCH  14  18
BRANCH  17  33
ATOM     33  O   UNL d   1      -0.404   5.326  26.605  0.00  0.00    -0.360 OA
ATOM     34  H   UNL d   1      -0.282   5.458  26.011  0.00  0.00     0.217 HD
ENDBRANCH  17  33
ENDBRANCH   3  12
BRANCH   6  35
ATOM     35  O   UNL d   1      -2.334   5.535  24.860  0.00  0.00    -0.360 OA
ATOM     36  H   UNL d   1      -2.926   5.353  24.900  0.00  0.00     0.217 HD
ENDBRANCH   6  35
BRANCH   9  37
ATOM     37  C   UNL d   1       0.895   1.507  25.882  0.00  0.00    -0.002 A 
ATOM     38  C   UNL d   1       0.268   0.932  26.408  0.00  0.00     0.017 A 
ATOM     39  C   UNL d   1       0.629   0.253  27.046  0.00  0.00     0.037 A 
ATOM     40  C   UNL d   1       1.617   0.148  27.158  0.00  0.00     0.065 A 
ATOM     41  C   UNL d   1       2.244   0.722  26.632  0.00  0.00     0.037 A 
ATOM     42  C   UNL d   1       1.882   1.402  25.994  0.00  0.00     0.017 A 
BRANCH  40  43
ATOM     43  O   UNL d   1       1.979  -0.532  27.796  0.00  0.00    -0.361 OA
ATOM     44  H   UNL d   1       2.267  -0.349  28.315  0.00  0.00     0.217 HD
ENDBRANCH  40  43
ENDBRANCH   9  37
BRANCH   7  45
ATOM     45  O   UNL d   1      -0.259   4.321  22.366  0.00  0.00    -0.360 OA
ATOM     46  H   UNL d   1      -0.427   3.883  21.960  0.00  0.00     0.217 HD
ENDBRANCH   7  45
TORSDOF 9
ENDMDL
