MODEL 1
REMARK VINA RESULT:    -8.978      0.000      0.000
REMARK INTER + INTRA:          -8.981
REMARK INTER:                 -11.248
REMARK INTRA:                   2.266
REMARK UNBOUND:                 1.834
REMARK  5 active torsions:
REMARK  status: ('A' for Active; 'I' for Inactive)
REMARK    1  A    between atoms: O_2  and  C_13 
REMARK    2  A    between atoms: O_3  and  C_19 
REMARK    3  A    between atoms: O_5  and  C_17 
REMARK    4  A    between atoms: O_6  and  C_21 
REMARK    5  A    between atoms: C_8  and  C_10 
ROOT
ATOM      1  O   UNL d   1      -1.732 -17.479  34.721  0.00  0.00    -0.309 OA
ATOM      2  O   UNL d   1      -4.730 -17.400  34.637  0.00  0.00    -0.287 OA
ATOM      3  C   UNL d   1      -3.245 -18.253  34.382  0.00  0.00     0.081 A 
ATOM      4  C   UNL d   1      -2.219 -16.653  35.004  0.00  0.00     0.090 A 
ATOM      5  C   UNL d   1      -2.245 -18.280  34.409  0.00  0.00     0.095 A 
ATOM      6  C   UNL d   1      -3.731 -17.427  34.665  0.00  0.00     0.190 A 
ATOM      7  C   UNL d   1      -3.218 -16.627  34.976  0.00  0.00     0.094 A 
ATOM      8  C   UNL d   1      -3.792 -19.079  34.060  0.00  0.00     0.085 A 
ATOM      9  C   UNL d   1      -1.724 -19.133  34.118  0.00  0.00     0.075 A 
ATOM     10  C   UNL d   1      -2.252 -19.971  33.792  0.00  0.00     0.071 A 
ATOM     11  C   UNL d   1      -3.292 -19.943  33.763  0.00  0.00     0.074 A 
ENDROOT
BRANCH   4  12
ATOM     12  C   UNL d   1      -1.706 -15.853  35.315  0.00  0.00     0.001 A 
ATOM     13  C   UNL d   1      -0.707 -15.855  35.280  0.00  0.00     0.054 A 
ATOM     14  C   UNL d   1      -0.194 -15.055  35.591  0.00  0.00     0.102 A 
ATOM     15  C   UNL d   1      -0.681 -14.253  35.937  0.00  0.00     0.099 A 
ATOM     16  C   UNL d   1      -1.680 -14.251  35.972  0.00  0.00     0.040 A 
ATOM     17  C   UNL d   1      -2.193 -15.051  35.661  0.00  0.00     0.017 A 
BRANCH  14  18
ATOM     18  O   UNL d   1       0.805 -15.057  35.556  0.00  0.00    -0.353 OA
ATOM     19  C   UNL d   1       1.295 -15.888  35.292  0.00  0.00     0.210 C 
ENDBRANCH  14  18
BRANCH  15  20
ATOM     20  O   UNL d   1      -0.168 -13.453  36.249  0.00  0.00    -0.358 OA
ATOM     21  H   UNL d   1      -0.324 -12.887  36.048  0.00  0.00     0.217 HD
ENDBRANCH  15  20
ENDBRANCH   4  12
BRANCH   8  22
ATOM     22  O   UNL d   1      -4.791 -19.041  34.036  0.00  0.00    -0.360 OA
ATOM     23  H   UNL d   1      -5.120 -19.258  34.514  0.00  0.00     0.217 HD
ENDBRANCH   8  22
BRANCH  10  24
ATOM     24  O   UNL d   1      -1.761 -20.795  33.510  0.00  0.00    -0.361 OA
ATOM     25  H   UNL d   1      -2.077 -21.304  33.349  0.00  0.00     0.217 HD
ENDBRANCH  10  24
TORSDOF 5
ENDMDL
MODEL 2
REMARK VINA RESULT:    -8.964      1.455      2.067
REMARK INTER + INTRA:          -8.964
REMARK INTER:                 -11.124
REMARK INTRA:                   2.160
REMARK UNBOUND:                 1.834
REMARK  5 active torsions:
REMARK  status: ('A' for Active; 'I' for Inactive)
REMARK    1  A    between atoms: O_2  and  C_13 
REMARK    2  A    between atoms: O_3  and  C_19 
REMARK    3  A    between atoms: O_5  and  C_17 
REMARK    4  A    between atoms: O_6  and  C_21 
REMARK    5  A    between atoms: C_8  and  C_10 
ROOT
ATOM      1  O   UNL d   1      -2.707 -18.582  33.515  0.00  0.00    -0.309 OA
ATOM      2  O   UNL d   1      -5.547 -19.468  33.904  0.00  0.00    -0.287 OA
ATOM      3  C   UNL d   1      -3.978 -19.720  33.214  0.00  0.00     0.081 A 
ATOM      4  C   UNL d   1      -3.329 -18.035  34.075  0.00  0.00     0.090 A 
ATOM      5  C   UNL d   1      -3.031 -19.424  33.085  0.00  0.00     0.095 A 
ATOM      6  C   UNL d   1      -4.600 -19.173  33.774  0.00  0.00     0.190 A 
ATOM      7  C   UNL d   1      -4.276 -18.330  34.205  0.00  0.00     0.094 A 
ATOM      8  C   UNL d   1      -4.329 -20.594  32.772  0.00  0.00     0.085 A 
ATOM      9  C   UNL d   1      -2.371 -19.983  32.504  0.00  0.00     0.075 A 
ATOM     10  C   UNL d   1      -2.702 -20.862  32.052  0.00  0.00     0.071 A 
ATOM     11  C   UNL d   1      -3.687 -21.169  32.187  0.00  0.00     0.074 A 
ENDROOT
BRANCH   4  12
ATOM     12  C   UNL d   1      -3.005 -17.193  34.506  0.00  0.00     0.001 A 
ATOM     13  C   UNL d   1      -2.039 -17.094  34.747  0.00  0.00     0.054 A 
ATOM     14  C   UNL d   1      -1.715 -16.252  35.178  0.00  0.00     0.102 A 
ATOM     15  C   UNL d   1      -2.356 -15.508  35.367  0.00  0.00     0.099 A 
ATOM     16  C   UNL d   1      -3.322 -15.607  35.126  0.00  0.00     0.040 A 
ATOM     17  C   UNL d   1      -3.646 -16.449  34.695  0.00  0.00     0.017 A 
BRANCH  14  18
ATOM     18  O   UNL d   1      -0.750 -16.154  35.419  0.00  0.00    -0.353 OA
ATOM     19  C   UNL d   1      -0.107 -16.893  35.220  0.00  0.00     0.210 C 
ENDBRANCH  14  18
BRANCH  15  20
ATOM     20  O   UNL d   1      -2.032 -14.666  35.798  0.00  0.00    -0.358 OA
ATOM     21  H   UNL d   1      -1.575 -14.340  35.535  0.00  0.00     0.217 HD
ENDBRANCH  15  20
ENDBRANCH   4  12
BRANCH   8  22
ATOM     22  O   UNL d   1      -5.278 -20.880  32.908  0.00  0.00    -0.360 OA
ATOM     23  H   UNL d   1      -5.671 -20.887  32.429  0.00  0.00     0.217 HD
ENDBRANCH   8  22
BRANCH  10  24
ATOM     24  O   UNL d   1      -2.076 -21.406  31.493  0.00  0.00    -0.361 OA
ATOM     25  H   UNL d   1      -1.898 -21.198  30.937  0.00  0.00     0.217 HD
ENDBRANCH  10  24
TORSDOF 5
ENDMDL
MODEL 3
REMARK VINA RESULT:    -8.848      1.101      4.876
REMARK INTER + INTRA:          -8.825
REMARK INTER:                 -11.050
REMARK INTRA:                   2.226
REMARK UNBOUND:                 1.834
REMARK  5 active torsions:
REMARK  status: ('A' for Active; 'I' for Inactive)
REMARK    1  A    between atoms: O_2  and  C_13 
REMARK    2  A    between atoms: O_3  and  C_19 
REMARK    3  A    between atoms: O_5  and  C_17 
REMARK    4  A    between atoms: O_6  and  C_21 
REMARK    5  A    between atoms: C_8  and  C_10 
ROOT
ATOM      1  O   UNL d   1      -1.431 -16.888  34.789  0.00  0.00    -0.309 OA
ATOM      2  O   UNL d   1      -2.995 -14.528  35.782  0.00  0.00    -0.287 OA
ATOM      3  C   UNL d   1      -1.477 -15.325  35.534  0.00  0.00     0.081 A 
ATOM      4  C   UNL d   1      -2.428 -16.878  34.706  0.00  0.00     0.090 A 
ATOM      5  C   UNL d   1      -0.956 -16.112  35.203  0.00  0.00     0.095 A 
ATOM      6  C   UNL d   1      -2.473 -15.315  35.451  0.00  0.00     0.190 A 
ATOM      7  C   UNL d   1      -2.949 -16.091  35.037  0.00  0.00     0.094 A 
ATOM      8  C   UNL d   1      -0.996 -14.510  35.968  0.00  0.00     0.085 A 
ATOM      9  C   UNL d   1       0.083 -16.137  35.283  0.00  0.00     0.075 A 
ATOM     10  C   UNL d   1       0.585 -15.333  35.713  0.00  0.00     0.071 A 
ATOM     11  C   UNL d   1       0.042 -14.514  36.058  0.00  0.00     0.074 A 
ENDROOT
BRANCH   4  12
ATOM     12  C   UNL d   1      -2.903 -17.654  34.291  0.00  0.00     0.001 A 
ATOM     13  C   UNL d   1      -2.427 -18.238  33.633  0.00  0.00     0.054 A 
ATOM     14  C   UNL d   1      -2.903 -19.014  33.219  0.00  0.00     0.102 A 
ATOM     15  C   UNL d   1      -3.853 -19.206  33.463  0.00  0.00     0.099 A 
ATOM     16  C   UNL d   1      -4.329 -18.622  34.121  0.00  0.00     0.040 A 
ATOM     17  C   UNL d   1      -3.853 -17.846  34.535  0.00  0.00     0.017 A 
BRANCH  14  18
ATOM     18  O   UNL d   1      -2.427 -19.598  32.561  0.00  0.00    -0.353 OA
ATOM     19  C   UNL d   1      -1.451 -19.783  32.671  0.00  0.00     0.210 C 
ENDBRANCH  14  18
BRANCH  15  20
ATOM     20  O   UNL d   1      -4.329 -19.982  33.049  0.00  0.00    -0.358 OA
ATOM     21  H   UNL d   1      -4.005 -20.424  32.758  0.00  0.00     0.217 HD
ENDBRANCH  15  20
ENDBRANCH   4  12
BRANCH   8  22
ATOM     22  O   UNL d   1      -1.527 -13.729  36.295  0.00  0.00    -0.360 OA
ATOM     23  H   UNL d   1      -1.273 -13.325  36.691  0.00  0.00     0.217 HD
ENDBRANCH   8  22
BRANCH  10  24
ATOM     24  O   UNL d   1       1.582 -15.347  35.794  0.00  0.00    -0.361 OA
ATOM     25  H   UNL d   1       1.929 -15.526  35.313  0.00  0.00     0.217 HD
ENDBRANCH  10  24
TORSDOF 5
ENDMDL
MODEL 4
REMARK VINA RESULT:    -8.800     36.679     39.699
REMARK INTER + INTRA:          -8.767
REMARK INTER:                 -10.984
REMARK INTRA:                   2.218
REMARK UNBOUND:                 1.834
REMARK  5 active torsions:
REMARK  status: ('A' for Active; 'I' for Inactive)
REMARK    1  A    between atoms: O_2  and  C_13 
REMARK    2  A    between atoms: O_3  and  C_19 
REMARK    3  A    between atoms: O_5  and  C_17 
REMARK    4  A    between atoms: O_6  and  C_21 
REMARK    5  A    between atoms: C_8  and  C_10 
ROOT
ATOM      1  O   UNL d   1      36.629 -22.639  40.471  0.00  0.00    -0.309 OA
ATOM      2  O   UNL d   1      39.406 -21.813  41.252  0.00  0.00    -0.287 OA
ATOM      3  C   UNL d   1      38.200 -23.044  41.078  0.00  0.00     0.081 A 
ATOM      4  C   UNL d   1      36.910 -21.683  40.385  0.00  0.00     0.090 A 
ATOM      5  C   UNL d   1      37.275 -23.319  40.818  0.00  0.00     0.095 A 
ATOM      6  C   UNL d   1      38.480 -22.088  40.992  0.00  0.00     0.190 A 
ATOM      7  C   UNL d   1      37.835 -21.407  40.645  0.00  0.00     0.094 A 
ATOM      8  C   UNL d   1      38.883 -23.742  41.440  0.00  0.00     0.085 A 
ATOM      9  C   UNL d   1      36.968 -24.311  40.902  0.00  0.00     0.075 A 
ATOM     10  C   UNL d   1      37.634 -25.026  41.262  0.00  0.00     0.071 A 
ATOM     11  C   UNL d   1      38.598 -24.740  41.533  0.00  0.00     0.074 A 
ENDROOT
BRANCH   4  12
ATOM     12  C   UNL d   1      36.265 -21.002  40.038  0.00  0.00     0.001 A 
ATOM     13  C   UNL d   1      35.496 -21.287  39.466  0.00  0.00     0.054 A 
ATOM     14  C   UNL d   1      34.851 -20.606  39.119  0.00  0.00     0.102 A 
ATOM     15  C   UNL d   1      34.974 -19.640  39.345  0.00  0.00     0.099 A 
ATOM     16  C   UNL d   1      35.743 -19.355  39.918  0.00  0.00     0.040 A 
ATOM     17  C   UNL d   1      36.388 -20.035  40.265  0.00  0.00     0.017 A 
BRANCH  14  18
ATOM     18  O   UNL d   1      34.082 -20.891  38.546  0.00  0.00    -0.353 OA
ATOM     19  C   UNL d   1      33.726 -21.823  38.616  0.00  0.00     0.210 C 
ENDBRANCH  14  18
BRANCH  15  20
ATOM     20  O   UNL d   1      34.329 -18.959  38.999  0.00  0.00    -0.358 OA
ATOM     21  H   UNL d   1      34.238 -18.900  38.388  0.00  0.00     0.217 HD
ENDBRANCH  15  20
ENDBRANCH   4  12
BRANCH   8  22
ATOM     22  O   UNL d   1      39.806 -23.456  41.698  0.00  0.00    -0.360 OA
ATOM     23  H   UNL d   1      40.295 -23.677  41.389  0.00  0.00     0.217 HD
ENDBRANCH   8  22
BRANCH  10  24
ATOM     24  O   UNL d   1      37.350 -25.982  41.347  0.00  0.00    -0.361 OA
ATOM     25  H   UNL d   1      37.438 -26.374  40.875  0.00  0.00     0.217 HD
ENDBRANCH  10  24
TORSDOF 5
ENDMDL
MODEL 5
REMARK VINA RESULT:    -8.705      1.890      3.326
REMARK INTER + INTRA:          -8.652
REMARK INTER:                 -10.737
REMARK INTRA:                   2.086
REMARK UNBOUND:                 1.834
REMARK  5 active torsions:
REMARK  status: ('A' for Active; 'I' for Inactive)
REMARK    1  A    between atoms: O_2  and  C_13 
REMARK    2  A    between atoms: O_3  and  C_19 
REMARK    3  A    between atoms: O_5  and  C_17 
REMARK    4  A    between atoms: O_6  and  C_21 
REMARK    5  A    between atoms: C_8  and  C_10 
ROOT
ATOM      1  O   UNL d   1      -4.661 -18.891  34.009  0.00  0.00    -0.309 OA
ATOM      2  O   UNL d   1      -3.122 -20.349  31.886  0.00  0.00    -0.287 OA
ATOM      3  C   UNL d   1      -4.548 -20.178  32.855  0.00  0.00     0.081 A 
ATOM      4  C   UNL d   1      -3.749 -18.576  33.747  0.00  0.00     0.090 A 
ATOM      5  C   UNL d   1      -5.060 -19.692  33.563  0.00  0.00     0.095 A 
ATOM      6  C   UNL d   1      -3.635 -19.863  32.594  0.00  0.00     0.190 A 
ATOM      7  C   UNL d   1      -3.236 -19.062  33.039  0.00  0.00     0.094 A 
ATOM      8  C   UNL d   1      -4.951 -21.014  32.382  0.00  0.00     0.085 A 
ATOM      9  C   UNL d   1      -6.012 -20.008  33.846  0.00  0.00     0.075 A 
ATOM     10  C   UNL d   1      -6.434 -20.842  33.386  0.00  0.00     0.071 A 
ATOM     11  C   UNL d   1      -5.900 -21.348  32.649  0.00  0.00     0.074 A 
ENDROOT
BRANCH   4  12
ATOM     12  C   UNL d   1      -3.350 -17.775  34.193  0.00  0.00     0.001 A 
ATOM     13  C   UNL d   1      -2.377 -17.765  34.425  0.00  0.00     0.054 A 
ATOM     14  C   UNL d   1      -1.977 -16.964  34.871  0.00  0.00     0.102 A 
ATOM     15  C   UNL d   1      -2.551 -16.173  35.085  0.00  0.00     0.099 A 
ATOM     16  C   UNL d   1      -3.524 -16.183  34.853  0.00  0.00     0.040 A 
ATOM     17  C   UNL d   1      -3.923 -16.984  34.407  0.00  0.00     0.017 A 
BRANCH  14  18
ATOM     18  O   UNL d   1      -1.005 -16.954  35.102  0.00  0.00    -0.353 OA
ATOM     19  C   UNL d   1      -0.482 -17.806  35.103  0.00  0.00     0.210 C 
ENDBRANCH  14  18
BRANCH  15  20
ATOM     20  O   UNL d   1      -2.152 -15.372  35.531  0.00  0.00    -0.358 OA
ATOM     21  H   UNL d   1      -1.702 -15.444  35.952  0.00  0.00     0.217 HD
ENDBRANCH  15  20
ENDBRANCH   4  12
BRANCH   8  22
ATOM     22  O   UNL d   1      -4.429 -21.492  31.676  0.00  0.00    -0.360 OA
ATOM     23  H   UNL d   1      -4.208 -22.061  31.785  0.00  0.00     0.217 HD
ENDBRANCH   8  22
BRANCH  10  24
ATOM     24  O   UNL d   1      -7.347 -21.154  33.651  0.00  0.00    -0.361 OA
ATOM     25  H   UNL d   1      -7.847 -20.827  33.483  0.00  0.00     0.217 HD
ENDBRANCH  10  24
TORSDOF 5
ENDMDL
