MODEL 1
REMARK VINA RESULT:    -7.324      0.000      0.000
REMARK INTER + INTRA:          -4.288
REMARK INTER:                  -9.335
REMARK INTRA:                   5.047
REMARK UNBOUND:                 5.176
REMARK  6 active torsions:
REMARK  status: ('A' for Active; 'I' for Inactive)
REMARK    1  A    between atoms: O_2  and  C_15 
REMARK    2  A    between atoms: O_3  and  C_17 
REMARK    3  A    between atoms: O_4  and  C_11 
REMARK    4  A    between atoms: O_6  and  C_22 
REMARK    5  A    between atoms: O_7  and  C_20 
REMARK    6  A    between atoms: C_10  and  C_13 
ROOT
ATOM      1  O   UNL d   1       9.371 -25.629  -1.891  0.00  0.00    -0.309 OA
ATOM      2  O   UNL d   1       6.554 -26.012  -0.735  0.00  0.00    -0.287 OA
ATOM      3  C   UNL d   1       8.222 -25.452  -0.548  0.00  0.00     0.084 A 
ATOM      4  C   UNL d   1       9.141 -25.326  -0.921  0.00  0.00     0.096 A 
ATOM      5  C   UNL d   1       8.634 -26.069  -2.480  0.00  0.00     0.090 A 
ATOM      6  C   UNL d   1       8.016 -25.156   0.385  0.00  0.00     0.119 A 
ATOM      7  C   UNL d   1       7.470 -25.890  -1.119  0.00  0.00     0.190 A 
ATOM      8  C   UNL d   1       9.854 -24.903  -0.361  0.00  0.00     0.078 A 
ATOM      9  C   UNL d   1       8.729 -24.734   0.945  0.00  0.00     0.136 A 
ATOM     10  C   UNL d   1       7.676 -26.201  -2.091  0.00  0.00     0.094 A 
ATOM     11  C   UNL d   1       9.648 -24.608   0.572  0.00  0.00     0.107 A 
ENDROOT
BRANCH   5  12
ATOM     12  C   UNL d   1       8.843 -26.364  -3.412  0.00  0.00     0.001 A 
ATOM     13  C   UNL d   1       9.329 -27.224  -3.567  0.00  0.00     0.053 A 
ATOM     14  C   UNL d   1       9.539 -27.519  -4.499  0.00  0.00     0.099 A 
ATOM     15  C   UNL d   1       9.262 -26.954  -5.276  0.00  0.00     0.101 A 
ATOM     16  C   UNL d   1       8.777 -26.093  -5.121  0.00  0.00     0.040 A 
ATOM     17  C   UNL d   1       8.567 -25.799  -4.189  0.00  0.00     0.017 A 
BRANCH  14  18
ATOM     18  O   UNL d   1      10.024 -28.380  -4.655  0.00  0.00    -0.358 OA
ATOM     19  H   UNL d   1       9.739 -28.920  -4.555  0.00  0.00     0.217 HD
ENDBRANCH  14  18
BRANCH  15  20
ATOM     20  O   UNL d   1       9.472 -27.248  -6.208  0.00  0.00    -0.353 OA
ATOM     21  C   UNL d   1       8.946 -26.887  -6.978  0.00  0.00     0.210 C 
ENDBRANCH  15  20
ENDBRANCH   5  12
BRANCH   6  22
ATOM     22  O   UNL d   1       7.097 -25.283   0.758  0.00  0.00    -0.357 OA
ATOM     23  H   UNL d   1       7.009 -25.656   1.246  0.00  0.00     0.218 HD
ENDBRANCH   6  22
BRANCH  11  24
ATOM     24  O   UNL d   1      10.361 -24.185   1.131  0.00  0.00    -0.353 OA
ATOM     25  C   UNL d   1      11.243 -23.948   0.723  0.00  0.00     0.210 C 
ENDBRANCH  11  24
BRANCH   9  26
ATOM     26  O   UNL d   1       8.523 -24.439   1.878  0.00  0.00    -0.351 OA
ATOM     27  C   UNL d   1       8.473 -25.111   2.616  0.00  0.00     0.210 C 
ENDBRANCH   9  26
TORSDOF 6
ENDMDL
MODEL 2
REMARK VINA RESULT:    -7.163      9.100     11.441
REMARK INTER + INTRA:          -4.080
REMARK INTER:                  -9.452
REMARK INTRA:                   5.372
REMARK UNBOUND:                 5.176
REMARK  6 active torsions:
REMARK  status: ('A' for Active; 'I' for Inactive)
REMARK    1  A    between atoms: O_2  and  C_15 
REMARK    2  A    between atoms: O_3  and  C_17 
REMARK    3  A    between atoms: O_4  and  C_11 
REMARK    4  A    between atoms: O_6  and  C_22 
REMARK    5  A    between atoms: O_7  and  C_20 
REMARK    6  A    between atoms: C_10  and  C_13 
ROOT
ATOM      1  O   UNL d   1      12.031 -16.694  -4.955  0.00  0.00    -0.309 OA
ATOM      2  O   UNL d   1      13.775 -19.054  -4.055  0.00  0.00    -0.287 OA
ATOM      3  C   UNL d   1      12.839 -18.235  -5.314  0.00  0.00     0.084 A 
ATOM      4  C   UNL d   1      12.270 -17.468  -5.611  0.00  0.00     0.096 A 
ATOM      5  C   UNL d   1      12.389 -16.720  -3.977  0.00  0.00     0.090 A 
ATOM      6  C   UNL d   1      13.060 -18.971  -5.954  0.00  0.00     0.119 A 
ATOM      7  C   UNL d   1      13.207 -18.281  -4.341  0.00  0.00     0.190 A 
ATOM      8  C   UNL d   1      11.923 -17.436  -6.548  0.00  0.00     0.078 A 
ATOM      9  C   UNL d   1      12.713 -18.939  -6.891  0.00  0.00     0.136 A 
ATOM     10  C   UNL d   1      12.982 -17.520  -3.668  0.00  0.00     0.094 A 
ATOM     11  C   UNL d   1      12.144 -18.171  -7.188  0.00  0.00     0.107 A 
ENDROOT
BRANCH   5  12
ATOM     12  C   UNL d   1      12.166 -15.983  -3.340  0.00  0.00     0.001 A 
ATOM     13  C   UNL d   1      11.313 -15.473  -3.444  0.00  0.00     0.053 A 
ATOM     14  C   UNL d   1      11.089 -14.735  -2.807  0.00  0.00     0.099 A 
ATOM     15  C   UNL d   1      11.720 -14.508  -2.065  0.00  0.00     0.101 A 
ATOM     16  C   UNL d   1      12.573 -15.018  -1.960  0.00  0.00     0.040 A 
ATOM     17  C   UNL d   1      12.796 -15.755  -2.598  0.00  0.00     0.017 A 
BRANCH  14  18
ATOM     18  O   UNL d   1      10.235 -14.225  -2.911  0.00  0.00    -0.358 OA
ATOM     19  H   UNL d   1       9.755 -14.344  -2.538  0.00  0.00     0.217 HD
ENDBRANCH  14  18
BRANCH  15  20
ATOM     20  O   UNL d   1      11.497 -13.771  -1.427  0.00  0.00    -0.353 OA
ATOM     21  C   UNL d   1      11.954 -13.722  -0.539  0.00  0.00     0.210 C 
ENDBRANCH  15  20
ENDBRANCH   5  12
BRANCH   6  22
ATOM     22  O   UNL d   1      13.628 -19.738  -5.657  0.00  0.00    -0.357 OA
ATOM     23  H   UNL d   1      13.857 -19.749  -5.081  0.00  0.00     0.218 HD
ENDBRANCH   6  22
BRANCH  11  24
ATOM     24  O   UNL d   1      11.797 -18.140  -8.125  0.00  0.00    -0.353 OA
ATOM     25  C   UNL d   1      11.491 -17.272  -8.516  0.00  0.00     0.210 C 
ENDBRANCH  11  24
BRANCH   9  26
ATOM     26  O   UNL d   1      12.934 -19.674  -7.531  0.00  0.00    -0.351 OA
ATOM     27  C   UNL d   1      12.447 -20.546  -7.479  0.00  0.00     0.210 C 
ENDBRANCH   9  26
TORSDOF 6
ENDMDL
MODEL 3
REMARK VINA RESULT:    -7.067     13.824     15.129
REMARK INTER + INTRA:          -3.956
REMARK INTER:                  -9.152
REMARK INTRA:                   5.197
REMARK UNBOUND:                 5.176
REMARK  6 active torsions:
REMARK  status: ('A' for Active; 'I' for Inactive)
REMARK    1  A    between atoms: O_2  and  C_15 
REMARK    2  A    between atoms: O_3  and  C_17 
REMARK    3  A    between atoms: O_4  and  C_11 
REMARK    4  A    between atoms: O_6  and  C_22 
REMARK    5  A    between atoms: O_7  and  C_20 
REMARK    6  A    between atoms: C_10  and  C_13 
ROOT
ATOM      1  O   UNL d   1      14.415 -36.546   6.699  0.00  0.00    -0.309 OA
ATOM      2  O   UNL d   1      14.291 -36.230   3.649  0.00  0.00    -0.287 OA
ATOM      3  C   UNL d   1      14.804 -35.625   5.231  0.00  0.00     0.084 A 
ATOM      4  C   UNL d   1      14.846 -35.725   6.225  0.00  0.00     0.096 A 
ATOM      5  C   UNL d   1      13.934 -37.274   6.130  0.00  0.00     0.090 A 
ATOM      6  C   UNL d   1      15.222 -34.831   4.790  0.00  0.00     0.119 A 
ATOM      7  C   UNL d   1      14.327 -36.340   4.643  0.00  0.00     0.190 A 
ATOM      8  C   UNL d   1      15.307 -35.030   6.778  0.00  0.00     0.078 A 
ATOM      9  C   UNL d   1      15.682 -34.136   5.343  0.00  0.00     0.136 A 
ATOM     10  C   UNL d   1      13.890 -37.170   5.094  0.00  0.00     0.094 A 
ATOM     11  C   UNL d   1      15.725 -34.236   6.337  0.00  0.00     0.107 A 
ENDROOT
BRANCH   5  12
ATOM     12  C   UNL d   1      13.517 -38.066   6.574  0.00  0.00     0.001 A 
ATOM     13  C   UNL d   1      13.667 -38.983   6.204  0.00  0.00     0.053 A 
ATOM     14  C   UNL d   1      13.250 -39.777   6.648  0.00  0.00     0.099 A 
ATOM     15  C   UNL d   1      12.683 -39.653   7.462  0.00  0.00     0.101 A 
ATOM     16  C   UNL d   1      12.533 -38.736   7.833  0.00  0.00     0.040 A 
ATOM     17  C   UNL d   1      12.950 -37.943   7.388  0.00  0.00     0.017 A 
BRANCH  14  18
ATOM     18  O   UNL d   1      13.400 -40.694   6.278  0.00  0.00    -0.358 OA
ATOM     19  H   UNL d   1      13.362 -40.792   5.667  0.00  0.00     0.217 HD
ENDBRANCH  14  18
BRANCH  15  20
ATOM     20  O   UNL d   1      12.266 -40.445   7.906  0.00  0.00    -0.353 OA
ATOM     21  C   UNL d   1      11.801 -40.340   8.785  0.00  0.00     0.210 C 
ENDBRANCH  15  20
ENDBRANCH   5  12
BRANCH   6  22
ATOM     22  O   UNL d   1      15.179 -34.731   3.796  0.00  0.00    -0.357 OA
ATOM     23  H   UNL d   1      15.226 -34.169   3.539  0.00  0.00     0.218 HD
ENDBRANCH   6  22
BRANCH  11  24
ATOM     24  O   UNL d   1      16.185 -33.542   6.890  0.00  0.00    -0.353 OA
ATOM     25  C   UNL d   1      16.032 -33.507   7.878  0.00  0.00     0.210 C 
ENDBRANCH  11  24
BRANCH   9  26
ATOM     26  O   UNL d   1      16.100 -33.342   4.902  0.00  0.00    -0.351 OA
ATOM     27  C   UNL d   1      17.012 -33.417   4.498  0.00  0.00     0.210 C 
ENDBRANCH   9  26
TORSDOF 6
ENDMDL
MODEL 4
REMARK VINA RESULT:    -7.052      1.431      2.588
REMARK INTER + INTRA:          -3.938
REMARK INTER:                  -9.050
REMARK INTRA:                   5.112
REMARK UNBOUND:                 5.176
REMARK  6 active torsions:
REMARK  status: ('A' for Active; 'I' for Inactive)
REMARK    1  A    between atoms: O_2  and  C_15 
REMARK    2  A    between atoms: O_3  and  C_17 
REMARK    3  A    between atoms: O_4  and  C_11 
REMARK    4  A    between atoms: O_6  and  C_22 
REMARK    5  A    between atoms: O_7  and  C_20 
REMARK    6  A    between atoms: C_10  and  C_13 
ROOT
ATOM      1  O   UNL d   1       8.613 -26.467  -3.052  0.00  0.00    -0.309 OA
ATOM      2  O   UNL d   1      11.487 -26.336  -1.984  0.00  0.00    -0.287 OA
ATOM      3  C   UNL d   1       9.742 -26.323  -1.689  0.00  0.00     0.084 A 
ATOM      4  C   UNL d   1       8.805 -26.365  -2.033  0.00  0.00     0.096 A 
ATOM      5  C   UNL d   1       9.409 -26.525  -3.721  0.00  0.00     0.090 A 
ATOM      6  C   UNL d   1       9.911 -26.226  -0.708  0.00  0.00     0.119 A 
ATOM      7  C   UNL d   1      10.553 -26.380  -2.340  0.00  0.00     0.190 A 
ATOM      8  C   UNL d   1       8.035 -26.310  -1.396  0.00  0.00     0.078 A 
ATOM      9  C   UNL d   1       9.142 -26.170  -0.071  0.00  0.00     0.136 A 
ATOM     10  C   UNL d   1      10.386 -26.481  -3.362  0.00  0.00     0.094 A 
ATOM     11  C   UNL d   1       8.204 -26.212  -0.415  0.00  0.00     0.107 A 
ENDROOT
BRANCH   5  12
ATOM     12  C   UNL d   1       9.236 -26.623  -4.701  0.00  0.00     0.001 A 
ATOM     13  C   UNL d   1       9.632 -27.392  -5.204  0.00  0.00     0.053 A 
ATOM     14  C   UNL d   1       9.460 -27.490  -6.184  0.00  0.00     0.099 A 
ATOM     15  C   UNL d   1       8.892 -26.819  -6.661  0.00  0.00     0.101 A 
ATOM     16  C   UNL d   1       8.497 -26.050  -6.159  0.00  0.00     0.040 A 
ATOM     17  C   UNL d   1       8.669 -25.953  -5.179  0.00  0.00     0.017 A 
BRANCH  14  18
ATOM     18  O   UNL d   1       9.855 -28.259  -6.688  0.00  0.00    -0.358 OA
ATOM     19  H   UNL d   1      10.085 -28.745  -6.381  0.00  0.00     0.217 HD
ENDBRANCH  14  18
BRANCH  15  20
ATOM     20  O   UNL d   1       8.720 -26.917  -7.641  0.00  0.00    -0.353 OA
ATOM     21  C   UNL d   1       8.115 -26.273  -8.110  0.00  0.00     0.210 C 
ENDBRANCH  15  20
ENDBRANCH   5  12
BRANCH   6  22
ATOM     22  O   UNL d   1      10.849 -26.183  -0.364  0.00  0.00    -0.357 OA
ATOM     23  H   UNL d   1      11.213 -25.704  -0.514  0.00  0.00     0.218 HD
ENDBRANCH   6  22
BRANCH  11  24
ATOM     24  O   UNL d   1       7.435 -26.157   0.221  0.00  0.00    -0.353 OA
ATOM     25  C   UNL d   1       6.499 -26.105  -0.128  0.00  0.00     0.210 C 
ENDBRANCH  11  24
BRANCH   9  26
ATOM     26  O   UNL d   1       9.311 -26.072   0.910  0.00  0.00    -0.351 OA
ATOM     27  C   UNL d   1       9.571 -26.870   1.454  0.00  0.00     0.210 C 
ENDBRANCH   9  26
TORSDOF 6
ENDMDL
MODEL 5
REMARK VINA RESULT:    -7.004     16.735     19.135
REMARK INTER + INTRA:          -3.875
REMARK INTER:                  -8.981
REMARK INTRA:                   5.106
REMARK UNBOUND:                 5.176
REMARK  6 active torsions:
REMARK  status: ('A' for Active; 'I' for Inactive)
REMARK    1  A    between atoms: O_2  and  C_15 
REMARK    2  A    between atoms: O_3  and  C_17 
REMARK    3  A    between atoms: O_4  and  C_11 
REMARK    4  A    between atoms: O_6  and  C_22 
REMARK    5  A    between atoms: O_7  and  C_20 
REMARK    6  A    between atoms: C_10  and  C_13 
ROOT
ATOM      1  O   UNL d   1       8.506 -12.924 -13.957  0.00  0.00    -0.309 OA
ATOM      2  O   UNL d   1       9.988 -11.789 -16.393  0.00  0.00    -0.287 OA
ATOM      3  C   UNL d   1       9.116 -13.117 -15.614  0.00  0.00     0.084 A 
ATOM      4  C   UNL d   1       8.632 -13.490 -14.822  0.00  0.00     0.096 A 
ATOM      5  C   UNL d   1       8.888 -11.955 -13.917  0.00  0.00     0.090 A 
ATOM      6  C   UNL d   1       9.230 -13.673 -16.438  0.00  0.00     0.119 A 
ATOM      7  C   UNL d   1       9.506 -12.152 -15.596  0.00  0.00     0.190 A 
ATOM      8  C   UNL d   1       8.263 -14.419 -14.854  0.00  0.00     0.078 A 
ATOM      9  C   UNL d   1       8.860 -14.601 -16.469  0.00  0.00     0.136 A 
ATOM     10  C   UNL d   1       9.392 -11.567 -14.742  0.00  0.00     0.094 A 
ATOM     11  C   UNL d   1       8.376 -14.974 -15.677  0.00  0.00     0.107 A 
ENDROOT
BRANCH   5  12
ATOM     12  C   UNL d   1       8.773 -11.403 -13.092  0.00  0.00     0.001 A 
ATOM     13  C   UNL d   1       8.123 -10.643 -13.087  0.00  0.00     0.053 A 
ATOM     14  C   UNL d   1       8.007 -10.089 -12.262  0.00  0.00     0.099 A 
ATOM     15  C   UNL d   1       8.541 -10.296 -11.442  0.00  0.00     0.101 A 
ATOM     16  C   UNL d   1       9.191 -11.056 -11.447  0.00  0.00     0.040 A 
ATOM     17  C   UNL d   1       9.306 -11.609 -12.272  0.00  0.00     0.017 A 
BRANCH  14  18
ATOM     18  O   UNL d   1       7.357  -9.329 -12.255  0.00  0.00    -0.358 OA
ATOM     19  H   UNL d   1       7.510  -8.792 -11.987  0.00  0.00     0.217 HD
ENDBRANCH  14  18
BRANCH  15  20
ATOM     20  O   UNL d   1       8.425  -9.743 -10.617  0.00  0.00    -0.353 OA
ATOM     21  C   UNL d   1       9.204  -9.580 -10.011  0.00  0.00     0.210 C 
ENDBRANCH  15  20
ENDBRANCH   5  12
BRANCH   6  22
ATOM     22  O   UNL d   1       9.713 -13.300 -17.230  0.00  0.00    -0.357 OA
ATOM     23  H   UNL d   1      10.273 -13.042 -17.158  0.00  0.00     0.218 HD
ENDBRANCH   6  22
BRANCH  11  24
ATOM     24  O   UNL d   1       8.007 -15.903 -15.709  0.00  0.00    -0.353 OA
ATOM     25  C   UNL d   1       7.614 -16.313 -14.886  0.00  0.00     0.210 C 
ENDBRANCH  11  24
BRANCH   9  26
ATOM     26  O   UNL d   1       8.974 -15.157 -17.293  0.00  0.00    -0.351 OA
ATOM     27  C   UNL d   1       9.847 -15.609 -17.475  0.00  0.00     0.210 C 
ENDBRANCH   9  26
TORSDOF 6
ENDMDL
