MODEL 1
REMARK VINA RESULT:    -8.739      0.000      0.000
REMARK INTER + INTRA:          -3.511
REMARK INTER:                 -13.530
REMARK INTRA:                  10.020
REMARK UNBOUND:                10.338
REMARK  14 active torsions:
REMARK  status: ('A' for Active; 'I' for Inactive)
REMARK    1  A    between atoms: C_15  and  O_1 
REMARK    2  A    between atoms: C_18  and  O_1 
REMARK    3  A    between atoms: C_16  and  O_4 
REMARK    4  A    between atoms: C_20  and  O_5 
REMARK    5  A    between atoms: O_5  and  C_27 
REMARK    6  A    between atoms: C_17  and  O_6 
REMARK    7  A    between atoms: C_19  and  O_7 
REMARK    8  A    between atoms: C_22  and  O_8 
REMARK    9  A    between atoms: C_23  and  O_9 
REMARK   10  A    between atoms: O_10  and  C_25 
REMARK   11  A    between atoms: O_12  and  C_31 
REMARK   12  A    between atoms: O_14  and  C_41 
REMARK   13  A    between atoms: C_21  and  C_25 
REMARK   14  A    between atoms: C_34  and  C_36 
ROOT
ATOM      1  O   UNL d   1      14.543 -17.798  -4.646  0.00  0.00    -0.348 OA
ATOM      2  C   UNL d   1      14.061 -17.912  -6.306  0.00  0.00     0.211 A 
ATOM      3  C   UNL d   1      14.998 -18.147  -6.562  0.00  0.00     0.183 A 
ATOM      4  C   UNL d   1      15.708 -18.207  -5.860  0.00  0.00     0.180 A 
ATOM      5  C   UNL d   1      13.833 -17.737  -5.348  0.00  0.00     0.298 A 
ATOM      6  C   UNL d   1      15.481 -18.033  -4.902  0.00  0.00     0.179 A 
ENDROOT
BRANCH   5   7
ATOM      7  O   UNL d   1      12.895 -17.503  -5.091  0.00  0.00    -0.318 OA
BRANCH   7   8
ATOM      8  C   UNL d   1      12.664 -17.347  -4.131  0.00  0.00     0.077 A 
ATOM      9  C   UNL d   1      12.552 -18.154  -3.481  0.00  0.00     0.075 A 
ATOM     10  C   UNL d   1      12.311 -17.980  -2.483  0.00  0.00     0.095 A 
ATOM     11  O   UNL d   1      12.205 -18.759  -1.865  0.00  0.00    -0.309 OA
ATOM     12  C   UNL d   1      12.184 -17.049  -2.139  0.00  0.00     0.081 A 
ATOM     13  C   UNL d   1      11.973 -18.608  -0.904  0.00  0.00     0.090 A 
ATOM     14  C   UNL d   1      11.847 -17.677  -0.561  0.00  0.00     0.094 A 
ATOM     15  C   UNL d   1      11.952 -16.898  -1.178  0.00  0.00     0.190 A 
ATOM     16  O   UNL d   1      11.826 -15.967  -0.836  0.00  0.00    -0.287 OA
ATOM     17  C   UNL d   1      12.291 -16.228  -2.771  0.00  0.00     0.085 A 
ATOM     18  C   UNL d   1      12.532 -16.378  -3.773  0.00  0.00     0.074 A 
BRANCH  13  19
ATOM     19  C   UNL d   1      11.868 -19.387  -0.286  0.00  0.00    -0.002 A 
ATOM     20  C   UNL d   1      12.440 -19.459   0.531  0.00  0.00     0.017 A 
ATOM     21  C   UNL d   1      12.334 -20.238   1.149  0.00  0.00     0.037 A 
ATOM     22  C   UNL d   1      11.657 -20.946   0.950  0.00  0.00     0.065 A 
ATOM     23  C   UNL d   1      11.084 -20.874   0.133  0.00  0.00     0.037 A 
ATOM     24  C   UNL d   1      11.190 -20.095  -0.485  0.00  0.00     0.017 A 
BRANCH  22  25
ATOM     25  O   UNL d   1      11.551 -21.725   1.568  0.00  0.00    -0.361 OA
ATOM     26  H   UNL d   1      11.030 -22.061   1.557  0.00  0.00     0.217 HD
ENDBRANCH  22  25
ENDBRANCH  13  19
BRANCH  17  27
ATOM     27  O   UNL d   1      12.162 -15.301  -2.417  0.00  0.00    -0.360 OA
ATOM     28  H   UNL d   1      12.275 -14.812  -2.781  0.00  0.00     0.217 HD
ENDBRANCH  17  27
ENDBRANCH   7   8
ENDBRANCH   5   7
BRANCH   2  29
ATOM     29  O   UNL d   1      13.351 -17.852  -7.007  0.00  0.00    -0.346 OA
BRANCH  29  30
ATOM     30  C   UNL d   1      12.827 -18.665  -7.260  0.00  0.00     0.292 A 
ATOM     31  O   UNL d   1      13.103 -19.563  -6.918  0.00  0.00    -0.351 OA
ATOM     32  C   UNL d   1      12.579 -20.377  -7.170  0.00  0.00     0.152 A 
ATOM     33  C   UNL d   1      11.779 -20.292  -7.764  0.00  0.00     0.178 A 
ATOM     34  C   UNL d   1      12.855 -21.275  -6.829  0.00  0.00     0.042 C 
ATOM     35  C   UNL d   1      11.503 -19.394  -8.106  0.00  0.00     0.183 A 
ATOM     36  C   UNL d   1      12.027 -18.580  -7.853  0.00  0.00     0.204 A 
BRANCH  33  37
ATOM     37  O   UNL d   1      11.255 -21.106  -8.017  0.00  0.00    -0.390 OA
ATOM     38  H   UNL d   1      10.821 -21.326  -7.633  0.00  0.00     0.210 HD
ENDBRANCH  33  37
BRANCH  35  39
ATOM     39  O   UNL d   1      10.703 -19.309  -8.700  0.00  0.00    -0.390 OA
ATOM     40  H   UNL d   1      10.196 -19.648  -8.587  0.00  0.00     0.210 HD
ENDBRANCH  35  39
BRANCH  36  41
ATOM     41  O   UNL d   1      11.751 -17.682  -8.195  0.00  0.00    -0.388 OA
ATOM     42  H   UNL d   1      11.491 -17.270  -7.811  0.00  0.00     0.210 HD
ENDBRANCH  36  41
ENDBRANCH  29  30
ENDBRANCH   2  29
BRANCH   6  43
ATOM     43  C   UNL d   1      16.191 -18.093  -4.201  0.00  0.00     0.198 C 
BRANCH  43  44
ATOM     44  O   UNL d   1      16.235 -17.407  -3.474  0.00  0.00    -0.398 OA
ATOM     45  H   UNL d   1      16.126 -17.571  -2.886  0.00  0.00     0.209 HD
ENDBRANCH  43  44
ENDBRANCH   6  43
BRANCH   3  46
ATOM     46  O   UNL d   1      15.226 -18.321  -7.520  0.00  0.00    -0.390 OA
ATOM     47  H   UNL d   1      14.777 -18.455  -7.926  0.00  0.00     0.210 HD
ENDBRANCH   3  46
BRANCH   4  48
ATOM     48  O   UNL d   1      16.646 -18.442  -6.117  0.00  0.00    -0.390 OA
ATOM     49  H   UNL d   1      17.005 -18.021  -6.396  0.00  0.00     0.210 HD
ENDBRANCH   4  48
TORSDOF 14
ENDMDL
MODEL 2
REMARK VINA RESULT:    -8.711      5.444      8.235
REMARK INTER + INTRA:          -3.465
REMARK INTER:                 -13.394
REMARK INTRA:                   9.928
REMARK UNBOUND:                10.338
REMARK  14 active torsions:
REMARK  status: ('A' for Active; 'I' for Inactive)
REMARK    1  A    between atoms: C_15  and  O_1 
REMARK    2  A    between atoms: C_18  and  O_1 
REMARK    3  A    between atoms: C_16  and  O_4 
REMARK    4  A    between atoms: C_20  and  O_5 
REMARK    5  A    between atoms: O_5  and  C_27 
REMARK    6  A    between atoms: C_17  and  O_6 
REMARK    7  A    between atoms: C_19  and  O_7 
REMARK    8  A    between atoms: C_22  and  O_8 
REMARK    9  A    between atoms: C_23  and  O_9 
REMARK   10  A    between atoms: O_10  and  C_25 
REMARK   11  A    between atoms: O_12  and  C_31 
REMARK   12  A    between atoms: O_14  and  C_41 
REMARK   13  A    between atoms: C_21  and  C_25 
REMARK   14  A    between atoms: C_34  and  C_36 
ROOT
ATOM      1  O   UNL d   1      12.090 -26.317  -1.117  0.00  0.00    -0.348 OA
ATOM      2  C   UNL d   1      10.992 -27.186  -2.137  0.00  0.00     0.211 A 
ATOM      3  C   UNL d   1      10.647 -27.684  -1.341  0.00  0.00     0.183 A 
ATOM      4  C   UNL d   1      11.023 -27.498  -0.433  0.00  0.00     0.180 A 
ATOM      5  C   UNL d   1      11.714 -26.503  -2.024  0.00  0.00     0.298 A 
ATOM      6  C   UNL d   1      11.744 -26.815  -0.321  0.00  0.00     0.179 A 
ENDROOT
BRANCH   5   7
ATOM      7  O   UNL d   1      12.059 -26.005  -2.820  0.00  0.00    -0.318 OA
BRANCH   7   8
ATOM      8  C   UNL d   1      12.648 -25.207  -2.694  0.00  0.00     0.077 A 
ATOM      9  C   UNL d   1      12.233 -24.281  -2.458  0.00  0.00     0.075 A 
ATOM     10  C   UNL d   1      12.856 -23.456  -2.329  0.00  0.00     0.095 A 
ATOM     11  O   UNL d   1      12.450 -22.571  -2.103  0.00  0.00    -0.309 OA
ATOM     12  C   UNL d   1      13.847 -23.541  -2.427  0.00  0.00     0.081 A 
ATOM     13  C   UNL d   1      13.035 -21.770  -1.976  0.00  0.00     0.090 A 
ATOM     14  C   UNL d   1      14.027 -21.855  -2.074  0.00  0.00     0.094 A 
ATOM     15  C   UNL d   1      14.433 -22.740  -2.300  0.00  0.00     0.190 A 
ATOM     16  O   UNL d   1      15.424 -22.826  -2.398  0.00  0.00    -0.287 OA
ATOM     17  C   UNL d   1      14.284 -24.457  -2.662  0.00  0.00     0.085 A 
ATOM     18  C   UNL d   1      13.681 -25.295  -2.796  0.00  0.00     0.074 A 
BRANCH  13  19
ATOM     19  C   UNL d   1      12.630 -20.884  -1.750  0.00  0.00    -0.002 A 
ATOM     20  C   UNL d   1      12.031 -20.796  -0.954  0.00  0.00     0.017 A 
ATOM     21  C   UNL d   1      11.626 -19.910  -0.729  0.00  0.00     0.037 A 
ATOM     22  C   UNL d   1      11.819 -19.112  -1.300  0.00  0.00     0.065 A 
ATOM     23  C   UNL d   1      12.418 -19.200  -2.095  0.00  0.00     0.037 A 
ATOM     24  C   UNL d   1      12.824 -20.086  -2.321  0.00  0.00     0.017 A 
BRANCH  22  25
ATOM     25  O   UNL d   1      11.413 -18.226  -1.074  0.00  0.00    -0.361 OA
ATOM     26  H   UNL d   1      10.930 -18.015  -1.399  0.00  0.00     0.217 HD
ENDBRANCH  22  25
ENDBRANCH  13  19
BRANCH  17  27
ATOM     27  O   UNL d   1      15.277 -24.530  -2.758  0.00  0.00    -0.360 OA
ATOM     28  H   UNL d   1      15.645 -24.089  -2.523  0.00  0.00     0.217 HD
ENDBRANCH  17  27
ENDBRANCH   7   8
ENDBRANCH   5   7
BRANCH   2  29
ATOM     29  O   UNL d   1      10.616 -27.372  -3.044  0.00  0.00    -0.346 OA
BRANCH  29  30
ATOM     30  C   UNL d   1       9.820 -26.862  -3.370  0.00  0.00     0.292 A 
ATOM     31  O   UNL d   1       9.169 -26.480  -2.714  0.00  0.00    -0.351 OA
ATOM     32  C   UNL d   1       8.373 -25.970  -3.040  0.00  0.00     0.152 A 
ATOM     33  C   UNL d   1       8.228 -25.842  -4.021  0.00  0.00     0.178 A 
ATOM     34  C   UNL d   1       7.721 -25.588  -2.384  0.00  0.00     0.042 C 
ATOM     35  C   UNL d   1       8.880 -26.223  -4.677  0.00  0.00     0.183 A 
ATOM     36  C   UNL d   1       9.676 -26.734  -4.351  0.00  0.00     0.204 A 
BRANCH  33  37
ATOM     37  O   UNL d   1       7.432 -25.331  -4.347  0.00  0.00    -0.390 OA
ATOM     38  H   UNL d   1       7.241 -24.827  -4.041  0.00  0.00     0.210 HD
ENDBRANCH  33  37
BRANCH  35  39
ATOM     39  O   UNL d   1       8.735 -26.095  -5.658  0.00  0.00    -0.390 OA
ATOM     40  H   UNL d   1       8.958 -26.510  -6.061  0.00  0.00     0.210 HD
ENDBRANCH  35  39
BRANCH  36  41
ATOM     41  O   UNL d   1      10.327 -27.115  -5.007  0.00  0.00    -0.388 OA
ATOM     42  H   UNL d   1      10.873 -27.333  -4.810  0.00  0.00     0.210 HD
ENDBRANCH  36  41
ENDBRANCH  29  30
ENDBRANCH   2  29
BRANCH   6  43
ATOM     43  C   UNL d   1      12.120 -26.629   0.587  0.00  0.00     0.198 C 
BRANCH  43  44
ATOM     44  O   UNL d   1      12.264 -25.685   0.885  0.00  0.00    -0.398 OA
ATOM     45  H   UNL d   1      12.521 -25.570   1.437  0.00  0.00     0.209 HD
ENDBRANCH  43  44
ENDBRANCH   6  43
BRANCH   3  46
ATOM     46  O   UNL d   1       9.925 -28.367  -1.453  0.00  0.00    -0.390 OA
ATOM     47  H   UNL d   1       9.400 -28.218  -1.747  0.00  0.00     0.210 HD
ENDBRANCH   3  46
BRANCH   4  48
ATOM     48  O   UNL d   1      10.677 -27.996   0.362  0.00  0.00    -0.390 OA
ATOM     49  H   UNL d   1      10.997 -28.474   0.592  0.00  0.00     0.210 HD
ENDBRANCH   4  48
TORSDOF 14
ENDMDL
MODEL 3
REMARK VINA RESULT:    -8.685      5.014      8.649
REMARK INTER + INTRA:          -3.425
REMARK INTER:                 -13.165
REMARK INTRA:                   9.740
REMARK UNBOUND:                10.338
REMARK  14 active torsions:
REMARK  status: ('A' for Active; 'I' for Inactive)
REMARK    1  A    between atoms: C_15  and  O_1 
REMARK    2  A    between atoms: C_18  and  O_1 
REMARK    3  A    between atoms: C_16  and  O_4 
REMARK    4  A    between atoms: C_20  and  O_5 
REMARK    5  A    between atoms: O_5  and  C_27 
REMARK    6  A    between atoms: C_17  and  O_6 
REMARK    7  A    between atoms: C_19  and  O_7 
REMARK    8  A    between atoms: C_22  and  O_8 
REMARK    9  A    between atoms: C_23  and  O_9 
REMARK   10  A    between atoms: O_10  and  C_25 
REMARK   11  A    between atoms: O_12  and  C_31 
REMARK   12  A    between atoms: O_14  and  C_41 
REMARK   13  A    between atoms: C_21  and  C_25 
REMARK   14  A    between atoms: C_34  and  C_36 
ROOT
ATOM      1  O   UNL d   1      11.596 -26.098  -1.378  0.00  0.00    -0.348 OA
ATOM      2  C   UNL d   1      10.085 -26.901  -1.115  0.00  0.00     0.211 A 
ATOM      3  C   UNL d   1      10.359 -27.624  -1.749  0.00  0.00     0.183 A 
ATOM      4  C   UNL d   1      11.251 -27.584  -2.198  0.00  0.00     0.180 A 
ATOM      5  C   UNL d   1      10.703 -26.138  -0.929  0.00  0.00     0.298 A 
ATOM      6  C   UNL d   1      11.870 -26.821  -2.012  0.00  0.00     0.179 A 
ENDROOT
BRANCH   5   7
ATOM      7  O   UNL d   1      10.430 -25.415  -0.295  0.00  0.00    -0.318 OA
BRANCH   7   8
ATOM      8  C   UNL d   1      11.072 -24.685  -0.061  0.00  0.00     0.077 A 
ATOM      9  C   UNL d   1      11.060 -23.787  -0.589  0.00  0.00     0.075 A 
ATOM     10  C   UNL d   1      11.733 -23.034  -0.336  0.00  0.00     0.095 A 
ATOM     11  O   UNL d   1      11.716 -22.174  -0.847  0.00  0.00    -0.309 OA
ATOM     12  C   UNL d   1      12.392 -23.161   0.406  0.00  0.00     0.081 A 
ATOM     13  C   UNL d   1      12.357 -21.442  -0.616  0.00  0.00     0.090 A 
ATOM     14  C   UNL d   1      13.015 -21.569   0.125  0.00  0.00     0.094 A 
ATOM     15  C   UNL d   1      13.033 -22.428   0.637  0.00  0.00     0.190 A 
ATOM     16  O   UNL d   1      13.691 -22.556   1.378  0.00  0.00    -0.287 OA
ATOM     17  C   UNL d   1      12.422 -24.051   0.947  0.00  0.00     0.085 A 
ATOM     18  C   UNL d   1      11.758 -24.817   0.712  0.00  0.00     0.074 A 
BRANCH  13  19
ATOM     19  C   UNL d   1      12.340 -20.582  -1.127  0.00  0.00    -0.002 A 
ATOM     20  C   UNL d   1      11.786 -19.816  -0.800  0.00  0.00     0.017 A 
ATOM     21  C   UNL d   1      11.769 -18.957  -1.311  0.00  0.00     0.037 A 
ATOM     22  C   UNL d   1      12.306 -18.863  -2.149  0.00  0.00     0.065 A 
ATOM     23  C   UNL d   1      12.859 -19.629  -2.477  0.00  0.00     0.037 A 
ATOM     24  C   UNL d   1      12.877 -20.489  -1.966  0.00  0.00     0.017 A 
BRANCH  22  25
ATOM     25  O   UNL d   1      12.289 -18.004  -2.660  0.00  0.00    -0.361 OA
ATOM     26  H   UNL d   1      11.918 -17.944  -3.154  0.00  0.00     0.217 HD
ENDBRANCH  22  25
ENDBRANCH  13  19
BRANCH  17  27
ATOM     27  O   UNL d   1      13.084 -24.167   1.687  0.00  0.00    -0.360 OA
ATOM     28  H   UNL d   1      12.965 -23.933   2.249  0.00  0.00     0.217 HD
ENDBRANCH  17  27
ENDBRANCH   7   8
ENDBRANCH   5   7
BRANCH   2  29
ATOM     29  O   UNL d   1       9.192 -26.942  -0.667  0.00  0.00    -0.346 OA
BRANCH  29  30
ATOM     30  C   UNL d   1       8.422 -26.423  -1.038  0.00  0.00     0.292 A 
ATOM     31  O   UNL d   1       8.396 -26.193  -2.011  0.00  0.00    -0.351 OA
ATOM     32  C   UNL d   1       7.626 -25.675  -2.383  0.00  0.00     0.152 A 
ATOM     33  C   UNL d   1       6.882 -25.385  -1.781  0.00  0.00     0.178 A 
ATOM     34  C   UNL d   1       7.601 -25.445  -3.356  0.00  0.00     0.042 C 
ATOM     35  C   UNL d   1       6.907 -25.615  -0.808  0.00  0.00     0.183 A 
ATOM     36  C   UNL d   1       7.677 -26.133  -0.437  0.00  0.00     0.204 A 
BRANCH  33  37
ATOM     37  O   UNL d   1       6.112 -24.867  -2.153  0.00  0.00    -0.390 OA
ATOM     38  H   UNL d   1       6.157 -24.252  -2.223  0.00  0.00     0.210 HD
ENDBRANCH  33  37
BRANCH  35  39
ATOM     39  O   UNL d   1       6.163 -25.325  -0.206  0.00  0.00    -0.390 OA
ATOM     40  H   UNL d   1       6.246 -24.852   0.185  0.00  0.00     0.210 HD
ENDBRANCH  35  39
BRANCH  36  41
ATOM     41  O   UNL d   1       7.703 -26.363   0.536  0.00  0.00    -0.388 OA
ATOM     42  H   UNL d   1       7.743 -26.955   0.714  0.00  0.00     0.210 HD
ENDBRANCH  36  41
ENDBRANCH  29  30
ENDBRANCH   2  29
BRANCH   6  43
ATOM     43  C   UNL d   1      12.763 -26.780  -2.461  0.00  0.00     0.198 C 
BRANCH  43  44
ATOM     44  O   UNL d   1      12.966 -26.044  -3.106  0.00  0.00    -0.398 OA
ATOM     45  H   UNL d   1      13.516 -25.759  -3.089  0.00  0.00     0.209 HD
ENDBRANCH  43  44
ENDBRANCH   6  43
BRANCH   3  46
ATOM     46  O   UNL d   1       9.740 -28.387  -1.935  0.00  0.00    -0.390 OA
ATOM     47  H   UNL d   1       9.634 -28.814  -1.498  0.00  0.00     0.210 HD
ENDBRANCH   3  46
BRANCH   4  48
ATOM     48  O   UNL d   1      11.525 -28.307  -2.832  0.00  0.00    -0.390 OA
ATOM     49  H   UNL d   1      11.903 -28.176  -3.306  0.00  0.00     0.210 HD
ENDBRANCH   4  48
TORSDOF 14
ENDMDL
MODEL 4
REMARK VINA RESULT:    -8.526      1.491      3.125
REMARK INTER + INTRA:          -3.173
REMARK INTER:                 -13.384
REMARK INTRA:                  10.211
REMARK UNBOUND:                10.338
REMARK  14 active torsions:
REMARK  status: ('A' for Active; 'I' for Inactive)
REMARK    1  A    between atoms: C_15  and  O_1 
REMARK    2  A    between atoms: C_18  and  O_1 
REMARK    3  A    between atoms: C_16  and  O_4 
REMARK    4  A    between atoms: C_20  and  O_5 
REMARK    5  A    between atoms: O_5  and  C_27 
REMARK    6  A    between atoms: C_17  and  O_6 
REMARK    7  A    between atoms: C_19  and  O_7 
REMARK    8  A    between atoms: C_22  and  O_8 
REMARK    9  A    between atoms: C_23  and  O_9 
REMARK   10  A    between atoms: O_10  and  C_25 
REMARK   11  A    between atoms: O_12  and  C_31 
REMARK   12  A    between atoms: O_14  and  C_41 
REMARK   13  A    between atoms: C_21  and  C_25 
REMARK   14  A    between atoms: C_34  and  C_36 
ROOT
ATOM      1  O   UNL d   1      12.760 -17.540  -5.735  0.00  0.00    -0.348 OA
ATOM      2  C   UNL d   1      14.248 -18.113  -6.412  0.00  0.00     0.211 A 
ATOM      3  C   UNL d   1      13.811 -18.190  -7.308  0.00  0.00     0.183 A 
ATOM      4  C   UNL d   1      12.848 -17.941  -7.418  0.00  0.00     0.180 A 
ATOM      5  C   UNL d   1      13.723 -17.788  -5.626  0.00  0.00     0.298 A 
ATOM      6  C   UNL d   1      12.323 -17.617  -6.631  0.00  0.00     0.179 A 
ENDROOT
BRANCH   5   7
ATOM      7  O   UNL d   1      14.160 -17.712  -4.730  0.00  0.00    -0.318 OA
BRANCH   7   8
ATOM      8  C   UNL d   1      13.605 -17.742  -3.898  0.00  0.00     0.077 A 
ATOM      9  C   UNL d   1      13.360 -18.656  -3.463  0.00  0.00     0.075 A 
ATOM     10  C   UNL d   1      12.782 -18.675  -2.598  0.00  0.00     0.095 A 
ATOM     11  O   UNL d   1      12.550 -19.557  -2.186  0.00  0.00    -0.309 OA
ATOM     12  C   UNL d   1      12.457 -17.828  -2.178  0.00  0.00     0.081 A 
ATOM     13  C   UNL d   1      11.996 -19.591  -1.355  0.00  0.00     0.090 A 
ATOM     14  C   UNL d   1      11.672 -18.743  -0.935  0.00  0.00     0.094 A 
ATOM     15  C   UNL d   1      11.902 -17.861  -1.346  0.00  0.00     0.190 A 
ATOM     16  O   UNL d   1      11.579 -17.014  -0.927  0.00  0.00    -0.287 OA
ATOM     17  C   UNL d   1      12.690 -16.902  -2.595  0.00  0.00     0.085 A 
ATOM     18  C   UNL d   1      13.267 -16.859  -3.461  0.00  0.00     0.074 A 
BRANCH  13  19
ATOM     19  C   UNL d   1      11.765 -20.473  -0.943  0.00  0.00    -0.002 A 
ATOM     20  C   UNL d   1      11.114 -20.515  -0.185  0.00  0.00     0.017 A 
ATOM     21  C   UNL d   1      10.883 -21.397   0.227  0.00  0.00     0.037 A 
ATOM     22  C   UNL d   1      11.303 -22.236  -0.120  0.00  0.00     0.065 A 
ATOM     23  C   UNL d   1      11.954 -22.193  -0.878  0.00  0.00     0.037 A 
ATOM     24  C   UNL d   1      12.185 -21.311  -1.290  0.00  0.00     0.017 A 
BRANCH  22  25
ATOM     25  O   UNL d   1      11.072 -23.118   0.292  0.00  0.00    -0.361 OA
ATOM     26  H   UNL d   1      10.732 -23.138   0.811  0.00  0.00     0.217 HD
ENDBRANCH  22  25
ENDBRANCH  13  19
BRANCH  17  27
ATOM     27  O   UNL d   1      12.361 -16.060  -2.167  0.00  0.00    -0.360 OA
ATOM     28  H   UNL d   1      11.841 -16.068  -1.828  0.00  0.00     0.217 HD
ENDBRANCH  17  27
ENDBRANCH   7   8
ENDBRANCH   5   7
BRANCH   2  29
ATOM     29  O   UNL d   1      15.210 -18.362  -6.303  0.00  0.00    -0.346 OA
BRANCH  29  30
ATOM     30  C   UNL d   1      15.458 -19.280  -5.995  0.00  0.00     0.292 A 
ATOM     31  O   UNL d   1      14.819 -20.039  -6.122  0.00  0.00    -0.351 OA
ATOM     32  C   UNL d   1      15.066 -20.958  -5.814  0.00  0.00     0.152 A 
ATOM     33  C   UNL d   1      15.952 -21.118  -5.380  0.00  0.00     0.178 A 
ATOM     34  C   UNL d   1      14.427 -21.717  -5.941  0.00  0.00     0.042 C 
ATOM     35  C   UNL d   1      16.591 -20.359  -5.253  0.00  0.00     0.183 A 
ATOM     36  C   UNL d   1      16.344 -19.441  -5.561  0.00  0.00     0.204 A 
BRANCH  33  37
ATOM     37  O   UNL d   1      16.200 -22.037  -5.072  0.00  0.00    -0.390 OA
ATOM     38  H   UNL d   1      16.200 -22.509  -5.474  0.00  0.00     0.210 HD
ENDBRANCH  33  37
BRANCH  35  39
ATOM     39  O   UNL d   1      17.478 -20.520  -4.819  0.00  0.00    -0.390 OA
ATOM     40  H   UNL d   1      17.529 -20.499  -4.201  0.00  0.00     0.210 HD
ENDBRANCH  35  39
BRANCH  36  41
ATOM     41  O   UNL d   1      16.983 -18.682  -5.434  0.00  0.00    -0.388 OA
ATOM     42  H   UNL d   1      16.777 -18.097  -5.446  0.00  0.00     0.210 HD
ENDBRANCH  36  41
ENDBRANCH  29  30
ENDBRANCH   2  29
BRANCH   6  43
ATOM     43  C   UNL d   1      11.361 -17.368  -6.741  0.00  0.00     0.198 C 
BRANCH  43  44
ATOM     44  O   UNL d   1      10.945 -16.695  -6.129  0.00  0.00    -0.398 OA
ATOM     45  H   UNL d   1      11.057 -16.720  -5.520  0.00  0.00     0.209 HD
ENDBRANCH  43  44
ENDBRANCH   6  43
BRANCH   3  46
ATOM     46  O   UNL d   1      14.336 -18.515  -8.095  0.00  0.00    -0.390 OA
ATOM     47  H   UNL d   1      14.940 -18.642  -8.033  0.00  0.00     0.210 HD
ENDBRANCH   3  46
BRANCH   4  48
ATOM     48  O   UNL d   1      12.411 -18.018  -8.314  0.00  0.00    -0.390 OA
ATOM     49  H   UNL d   1      12.520 -18.513  -8.671  0.00  0.00     0.210 HD
ENDBRANCH   4  48
TORSDOF 14
ENDMDL
MODEL 5
REMARK VINA RESULT:    -8.463     26.505     28.503
REMARK INTER + INTRA:          -3.073
REMARK INTER:                 -13.294
REMARK INTRA:                  10.221
REMARK UNBOUND:                10.338
REMARK  14 active torsions:
REMARK  status: ('A' for Active; 'I' for Inactive)
REMARK    1  A    between atoms: C_15  and  O_1 
REMARK    2  A    between atoms: C_18  and  O_1 
REMARK    3  A    between atoms: C_16  and  O_4 
REMARK    4  A    between atoms: C_20  and  O_5 
REMARK    5  A    between atoms: O_5  and  C_27 
REMARK    6  A    between atoms: C_17  and  O_6 
REMARK    7  A    between atoms: C_19  and  O_7 
REMARK    8  A    between atoms: C_22  and  O_8 
REMARK    9  A    between atoms: C_23  and  O_9 
REMARK   10  A    between atoms: O_10  and  C_25 
REMARK   11  A    between atoms: O_12  and  C_31 
REMARK   12  A    between atoms: O_14  and  C_41 
REMARK   13  A    between atoms: C_21  and  C_25 
REMARK   14  A    between atoms: C_34  and  C_36 
ROOT
ATOM      1  O   UNL d   1      27.681 -35.771 -20.441  0.00  0.00    -0.348 OA
ATOM      2  C   UNL d   1      26.687 -37.165 -20.180  0.00  0.00     0.211 A 
ATOM      3  C   UNL d   1      25.968 -36.759 -20.745  0.00  0.00     0.183 A 
ATOM      4  C   UNL d   1      26.106 -35.859 -21.158  0.00  0.00     0.180 A 
ATOM      5  C   UNL d   1      27.543 -36.671 -20.028  0.00  0.00     0.298 A 
ATOM      6  C   UNL d   1      26.962 -35.365 -21.006  0.00  0.00     0.179 A 
ENDROOT
BRANCH   5   7
ATOM      7  O   UNL d   1      28.261 -37.077 -19.463  0.00  0.00    -0.318 OA
BRANCH   7   8
ATOM      8  C   UNL d   1      28.578 -36.604 -18.642  0.00  0.00     0.077 A 
ATOM      9  C   UNL d   1      29.429 -36.004 -18.677  0.00  0.00     0.075 A 
ATOM     10  C   UNL d   1      29.751 -35.516 -17.815  0.00  0.00     0.095 A 
ATOM     11  O   UNL d   1      30.568 -34.942 -17.857  0.00  0.00    -0.309 OA
ATOM     12  C   UNL d   1      29.254 -35.615 -16.953  0.00  0.00     0.081 A 
ATOM     13  C   UNL d   1      30.889 -34.467 -17.037  0.00  0.00     0.090 A 
ATOM     14  C   UNL d   1      30.391 -34.567 -16.176  0.00  0.00     0.094 A 
ATOM     15  C   UNL d   1      29.574 -35.141 -16.133  0.00  0.00     0.190 A 
ATOM     16  O   UNL d   1      29.076 -35.240 -15.272  0.00  0.00    -0.287 OA
ATOM     17  C   UNL d   1      28.400 -36.210 -16.894  0.00  0.00     0.085 A 
ATOM     18  C   UNL d   1      28.061 -36.708 -17.743  0.00  0.00     0.074 A 
BRANCH  13  19
ATOM     19  C   UNL d   1      31.706 -33.892 -17.079  0.00  0.00    -0.002 A 
ATOM     20  C   UNL d   1      31.627 -32.901 -16.977  0.00  0.00     0.017 A 
ATOM     21  C   UNL d   1      32.445 -32.327 -17.019  0.00  0.00     0.037 A 
ATOM     22  C   UNL d   1      33.342 -32.744 -17.162  0.00  0.00     0.065 A 
ATOM     23  C   UNL d   1      33.421 -33.736 -17.265  0.00  0.00     0.037 A 
ATOM     24  C   UNL d   1      32.604 -34.311 -17.223  0.00  0.00     0.017 A 
BRANCH  22  25
ATOM     25  O   UNL d   1      34.160 -32.170 -17.204  0.00  0.00    -0.361 OA
ATOM     26  H   UNL d   1      34.185 -31.696 -17.603  0.00  0.00     0.217 HD
ENDBRANCH  22  25
ENDBRANCH  13  19
BRANCH  17  27
ATOM     27  O   UNL d   1      27.911 -36.303 -16.027  0.00  0.00    -0.360 OA
ATOM     28  H   UNL d   1      27.345 -36.055 -15.962  0.00  0.00     0.217 HD
ENDBRANCH  17  27
ENDBRANCH   7   8
ENDBRANCH   5   7
BRANCH   2  29
ATOM     29  O   UNL d   1      26.549 -38.066 -19.767  0.00  0.00    -0.346 OA
BRANCH  29  30
ATOM     30  C   UNL d   1      26.705 -38.893 -20.307  0.00  0.00     0.292 A 
ATOM     31  O   UNL d   1      27.308 -38.863 -21.104  0.00  0.00    -0.351 OA
ATOM     32  C   UNL d   1      27.463 -39.690 -21.644  0.00  0.00     0.152 A 
ATOM     33  C   UNL d   1      27.016 -40.547 -21.387  0.00  0.00     0.178 A 
ATOM     34  C   UNL d   1      28.067 -39.661 -22.441  0.00  0.00     0.042 C 
ATOM     35  C   UNL d   1      26.412 -40.576 -20.590  0.00  0.00     0.183 A 
ATOM     36  C   UNL d   1      26.257 -39.749 -20.050  0.00  0.00     0.204 A 
BRANCH  33  37
ATOM     37  O   UNL d   1      27.171 -41.374 -21.927  0.00  0.00    -0.390 OA
ATOM     38  H   UNL d   1      27.421 -41.332 -22.493  0.00  0.00     0.210 HD
ENDBRANCH  33  37
BRANCH  35  39
ATOM     39  O   UNL d   1      25.964 -41.433 -20.333  0.00  0.00    -0.390 OA
ATOM     40  H   UNL d   1      25.959 -41.614 -19.740  0.00  0.00     0.210 HD
ENDBRANCH  35  39
BRANCH  36  41
ATOM     41  O   UNL d   1      25.653 -39.778 -19.253  0.00  0.00    -0.388 OA
ATOM     42  H   UNL d   1      25.067 -39.971 -19.315  0.00  0.00     0.210 HD
ENDBRANCH  36  41
ENDBRANCH  29  30
ENDBRANCH   2  29
BRANCH   6  43
ATOM     43  C   UNL d   1      27.100 -34.465 -21.419  0.00  0.00     0.198 C 
BRANCH  43  44
ATOM     44  O   UNL d   1      27.414 -33.700 -20.858  0.00  0.00    -0.398 OA
ATOM     45  H   UNL d   1      27.094 -33.168 -20.851  0.00  0.00     0.209 HD
ENDBRANCH  43  44
ENDBRANCH   6  43
BRANCH   3  46
ATOM     46  O   UNL d   1      25.112 -37.253 -20.897  0.00  0.00    -0.390 OA
ATOM     47  H   UNL d   1      24.800 -37.488 -20.415  0.00  0.00     0.210 HD
ENDBRANCH   3  46
BRANCH   4  48
ATOM     48  O   UNL d   1      25.388 -35.453 -21.723  0.00  0.00    -0.390 OA
ATOM     49  H   UNL d   1      25.526 -35.221 -22.281  0.00  0.00     0.210 HD
ENDBRANCH   4  48
TORSDOF 14
ENDMDL
