MODEL 1
REMARK VINA RESULT:    -7.993      0.000      0.000
REMARK INTER + INTRA:          -7.741
REMARK INTER:                  -8.747
REMARK INTRA:                   1.006
REMARK UNBOUND:                 1.187
REMARK  3 active torsions:
REMARK  status: ('A' for Active; 'I' for Inactive)
REMARK    1  A    between atoms: O_2  and  C_10 
REMARK    2  A    between atoms: O_4  and  C_13 
REMARK    3  A    between atoms: C_7  and  C_9 
ROOT
ATOM      1  O   UNL d   1       8.405 -12.627 -13.517  0.00  0.00    -0.309 OA
ATOM      2  O   UNL d   1       6.916 -10.660 -15.225  0.00  0.00    -0.287 OA
ATOM      3  C   UNL d   1       7.671 -11.071 -13.721  0.00  0.00     0.081 A 
ATOM      4  C   UNL d   1       8.168 -11.726 -13.152  0.00  0.00     0.095 A 
ATOM      5  C   UNL d   1       8.146 -12.871 -14.451  0.00  0.00     0.090 A 
ATOM      6  C   UNL d   1       7.412 -11.316 -14.655  0.00  0.00     0.190 A 
ATOM      7  C   UNL d   1       7.418 -10.130 -13.354  0.00  0.00     0.085 A 
ATOM      8  C   UNL d   1       7.650 -12.216 -15.020  0.00  0.00     0.094 A 
ATOM      9  C   UNL d   1       8.444 -11.486 -12.177  0.00  0.00     0.075 A 
ATOM     10  C   UNL d   1       8.201 -10.550 -11.790  0.00  0.00     0.071 A 
ATOM     11  C   UNL d   1       7.684  -9.868 -12.382  0.00  0.00     0.074 A 
ENDROOT
BRANCH   5  12
ATOM     12  C   UNL d   1       8.383 -13.772 -14.816  0.00  0.00    -0.002 A 
ATOM     13  C   UNL d   1       7.706 -14.507 -14.812  0.00  0.00     0.014 A 
ATOM     14  C   UNL d   1       7.943 -15.408 -15.177  0.00  0.00     0.001 A 
ATOM     15  C   UNL d   1       8.857 -15.572 -15.546  0.00  0.00     0.000 A 
ATOM     16  C   UNL d   1       9.535 -14.837 -15.550  0.00  0.00     0.001 A 
ATOM     17  C   UNL d   1       9.298 -13.937 -15.185  0.00  0.00     0.014 A 
ENDBRANCH   5  12
BRANCH   7  18
ATOM     18  O   UNL d   1       6.921  -9.482 -13.933  0.00  0.00    -0.360 OA
ATOM     19  H   UNL d   1       7.174  -8.933 -14.070  0.00  0.00     0.217 HD
ENDBRANCH   7  18
BRANCH  10  20
ATOM     20  O   UNL d   1       8.462 -10.309 -10.854  0.00  0.00    -0.361 OA
ATOM     21  H   UNL d   1       9.050 -10.161 -10.726  0.00  0.00     0.217 HD
ENDBRANCH  10  20
TORSDOF 3
ENDMDL
MODEL 2
REMARK VINA RESULT:    -7.780     10.263     11.817
REMARK INTER + INTRA:          -7.503
REMARK INTER:                  -8.550
REMARK INTRA:                   1.047
REMARK UNBOUND:                 1.187
REMARK  3 active torsions:
REMARK  status: ('A' for Active; 'I' for Inactive)
REMARK    1  A    between atoms: O_2  and  C_10 
REMARK    2  A    between atoms: O_4  and  C_13 
REMARK    3  A    between atoms: C_7  and  C_9 
ROOT
ATOM      1  O   UNL d   1      12.167 -17.477  -5.516  0.00  0.00    -0.309 OA
ATOM      2  O   UNL d   1      14.957 -18.151  -6.386  0.00  0.00    -0.287 OA
ATOM      3  C   UNL d   1      13.302 -17.825  -6.777  0.00  0.00     0.081 A 
ATOM      4  C   UNL d   1      12.372 -17.600  -6.487  0.00  0.00     0.095 A 
ATOM      5  C   UNL d   1      12.892 -17.578  -4.835  0.00  0.00     0.090 A 
ATOM      6  C   UNL d   1      14.027 -17.926  -6.096  0.00  0.00     0.190 A 
ATOM      7  C   UNL d   1      13.530 -17.956  -7.784  0.00  0.00     0.085 A 
ATOM      8  C   UNL d   1      13.822 -17.803  -5.125  0.00  0.00     0.094 A 
ATOM      9  C   UNL d   1      11.605 -17.491  -7.184  0.00  0.00     0.075 A 
ATOM     10  C   UNL d   1      11.811 -17.617  -8.197  0.00  0.00     0.071 A 
ATOM     11  C   UNL d   1      12.780 -17.852  -8.499  0.00  0.00     0.074 A 
ENDROOT
BRANCH   5  12
ATOM     12  C   UNL d   1      12.687 -17.455  -3.864  0.00  0.00    -0.002 A 
ATOM     13  C   UNL d   1      12.467 -16.546  -3.511  0.00  0.00     0.014 A 
ATOM     14  C   UNL d   1      12.262 -16.422  -2.540  0.00  0.00     0.001 A 
ATOM     15  C   UNL d   1      12.278 -17.208  -1.922  0.00  0.00     0.000 A 
ATOM     16  C   UNL d   1      12.498 -18.118  -2.275  0.00  0.00     0.001 A 
ATOM     17  C   UNL d   1      12.703 -18.241  -3.246  0.00  0.00     0.014 A 
ENDBRANCH   5  12
BRANCH   7  18
ATOM     18  O   UNL d   1      14.464 -18.181  -8.063  0.00  0.00    -0.360 OA
ATOM     19  H   UNL d   1      14.579 -18.354  -8.647  0.00  0.00     0.217 HD
ENDBRANCH   7  18
BRANCH  10  20
ATOM     20  O   UNL d   1      11.083 -17.515  -8.875  0.00  0.00    -0.361 OA
ATOM     21  H   UNL d   1      10.490 -17.567  -8.702  0.00  0.00     0.217 HD
ENDBRANCH  10  20
TORSDOF 3
ENDMDL
MODEL 3
REMARK VINA RESULT:    -7.774      1.071      2.158
REMARK INTER + INTRA:          -7.496
REMARK INTER:                  -8.499
REMARK INTRA:                   1.003
REMARK UNBOUND:                 1.187
REMARK  3 active torsions:
REMARK  status: ('A' for Active; 'I' for Inactive)
REMARK    1  A    between atoms: O_2  and  C_10 
REMARK    2  A    between atoms: O_4  and  C_13 
REMARK    3  A    between atoms: C_7  and  C_9 
ROOT
ATOM      1  O   UNL d   1       7.537 -12.676 -14.982  0.00  0.00    -0.309 OA
ATOM      2  O   UNL d   1       9.595 -11.855 -12.960  0.00  0.00    -0.287 OA
ATOM      3  C   UNL d   1       8.149 -11.517 -13.850  0.00  0.00     0.081 A 
ATOM      4  C   UNL d   1       7.463 -11.790 -14.524  0.00  0.00     0.095 A 
ATOM      5  C   UNL d   1       8.297 -13.289 -14.765  0.00  0.00     0.090 A 
ATOM      6  C   UNL d   1       8.909 -12.129 -13.634  0.00  0.00     0.190 A 
ATOM      7  C   UNL d   1       8.084 -10.597 -13.366  0.00  0.00     0.085 A 
ATOM      8  C   UNL d   1       8.983 -13.015 -14.091  0.00  0.00     0.094 A 
ATOM      9  C   UNL d   1       6.665 -11.163 -14.760  0.00  0.00     0.075 A 
ATOM     10  C   UNL d   1       6.581 -10.239 -14.288  0.00  0.00     0.071 A 
ATOM     11  C   UNL d   1       7.295  -9.954 -13.586  0.00  0.00     0.074 A 
ENDROOT
BRANCH   5  12
ATOM     12  C   UNL d   1       8.372 -14.175 -15.223  0.00  0.00    -0.002 A 
ATOM     13  C   UNL d   1       8.953 -14.273 -16.031  0.00  0.00     0.014 A 
ATOM     14  C   UNL d   1       9.027 -15.159 -16.488  0.00  0.00     0.001 A 
ATOM     15  C   UNL d   1       8.520 -15.947 -16.138  0.00  0.00     0.000 A 
ATOM     16  C   UNL d   1       7.939 -15.848 -15.330  0.00  0.00     0.001 A 
ATOM     17  C   UNL d   1       7.865 -14.962 -14.873  0.00  0.00     0.014 A 
ENDBRANCH   5  12
BRANCH   7  18
ATOM     18  O   UNL d   1       8.776 -10.334 -12.693  0.00  0.00    -0.360 OA
ATOM     19  H   UNL d   1       8.604 -10.077 -12.156  0.00  0.00     0.217 HD
ENDBRANCH   7  18
BRANCH  10  20
ATOM     20  O   UNL d   1       5.819  -9.629 -14.507  0.00  0.00    -0.361 OA
ATOM     21  H   UNL d   1       5.929  -9.075 -14.763  0.00  0.00     0.217 HD
ENDBRANCH  10  20
TORSDOF 3
ENDMDL
MODEL 4
REMARK VINA RESULT:    -7.662      9.601     10.819
REMARK INTER + INTRA:          -7.371
REMARK INTER:                  -8.467
REMARK INTRA:                   1.096
REMARK UNBOUND:                 1.187
REMARK  3 active torsions:
REMARK  status: ('A' for Active; 'I' for Inactive)
REMARK    1  A    between atoms: O_2  and  C_10 
REMARK    2  A    between atoms: O_4  and  C_13 
REMARK    3  A    between atoms: C_7  and  C_9 
ROOT
ATOM      1  O   UNL d   1      11.419 -16.572  -5.570  0.00  0.00    -0.309 OA
ATOM      2  O   UNL d   1      13.824 -17.466  -4.015  0.00  0.00    -0.287 OA
ATOM      3  C   UNL d   1      12.432 -16.447  -4.170  0.00  0.00     0.081 A 
ATOM      4  C   UNL d   1      11.630 -16.149  -4.689  0.00  0.00     0.095 A 
ATOM      5  C   UNL d   1      12.009 -17.293  -5.933  0.00  0.00     0.090 A 
ATOM      6  C   UNL d   1      13.022 -17.168  -4.533  0.00  0.00     0.190 A 
ATOM      7  C   UNL d   1      12.664 -16.015  -3.252  0.00  0.00     0.085 A 
ATOM      8  C   UNL d   1      12.811 -17.591  -5.414  0.00  0.00     0.094 A 
ATOM      9  C   UNL d   1      11.006 -15.399  -4.324  0.00  0.00     0.075 A 
ATOM     10  C   UNL d   1      11.220 -14.953  -3.407  0.00  0.00     0.071 A 
ATOM     11  C   UNL d   1      12.054 -15.264  -2.867  0.00  0.00     0.074 A 
ENDROOT
BRANCH   5  12
ATOM     12  C   UNL d   1      11.798 -17.716  -6.814  0.00  0.00    -0.002 A 
ATOM     13  C   UNL d   1      11.605 -18.695  -6.865  0.00  0.00     0.014 A 
ATOM     14  C   UNL d   1      11.394 -19.118  -7.746  0.00  0.00     0.001 A 
ATOM     15  C   UNL d   1      11.376 -18.561  -8.576  0.00  0.00     0.000 A 
ATOM     16  C   UNL d   1      11.568 -17.582  -8.525  0.00  0.00     0.001 A 
ATOM     17  C   UNL d   1      11.780 -17.159  -7.644  0.00  0.00     0.014 A 
ENDBRANCH   5  12
BRANCH   7  18
ATOM     18  O   UNL d   1      13.468 -16.321  -2.742  0.00  0.00    -0.360 OA
ATOM     19  H   UNL d   1      13.959 -16.550  -3.045  0.00  0.00     0.217 HD
ENDBRANCH   7  18
BRANCH  10  20
ATOM     20  O   UNL d   1      10.627 -14.232  -3.048  0.00  0.00    -0.361 OA
ATOM     21  H   UNL d   1      10.021 -14.234  -3.181  0.00  0.00     0.217 HD
ENDBRANCH  10  20
TORSDOF 3
ENDMDL
MODEL 5
REMARK VINA RESULT:    -7.530     11.225     12.592
REMARK INTER + INTRA:          -7.223
REMARK INTER:                  -8.259
REMARK INTRA:                   1.036
REMARK UNBOUND:                 1.187
REMARK  3 active torsions:
REMARK  status: ('A' for Active; 'I' for Inactive)
REMARK    1  A    between atoms: O_2  and  C_10 
REMARK    2  A    between atoms: O_4  and  C_13 
REMARK    3  A    between atoms: C_7  and  C_9 
ROOT
ATOM      1  O   UNL d   1      13.914 -19.493  -6.651  0.00  0.00    -0.309 OA
ATOM      2  O   UNL d   1      12.371 -22.037  -7.034  0.00  0.00    -0.287 OA
ATOM      3  C   UNL d   1      13.750 -21.200  -6.404  0.00  0.00     0.081 A 
ATOM      4  C   UNL d   1      14.264 -20.351  -6.277  0.00  0.00     0.095 A 
ATOM      5  C   UNL d   1      13.049 -19.483  -7.153  0.00  0.00     0.090 A 
ATOM      6  C   UNL d   1      12.885 -21.189  -6.906  0.00  0.00     0.190 A 
ATOM      7  C   UNL d   1      14.102 -22.101  -6.020  0.00  0.00     0.085 A 
ATOM      8  C   UNL d   1      12.534 -20.331  -7.281  0.00  0.00     0.094 A 
ATOM      9  C   UNL d   1      15.166 -20.346  -5.756  0.00  0.00     0.075 A 
ATOM     10  C   UNL d   1      15.538 -21.237  -5.363  0.00  0.00     0.071 A 
ATOM     11  C   UNL d   1      15.002 -22.119  -5.496  0.00  0.00     0.074 A 
ENDROOT
BRANCH   5  12
ATOM     12  C   UNL d   1      12.698 -18.624  -7.528  0.00  0.00    -0.002 A 
ATOM     13  C   UNL d   1      13.139 -18.209  -8.324  0.00  0.00     0.014 A 
ATOM     14  C   UNL d   1      12.788 -17.351  -8.698  0.00  0.00     0.001 A 
ATOM     15  C   UNL d   1      11.998 -16.907  -8.277  0.00  0.00     0.000 A 
ATOM     16  C   UNL d   1      11.557 -17.322  -7.481  0.00  0.00     0.001 A 
ATOM     17  C   UNL d   1      11.908 -18.181  -7.106  0.00  0.00     0.014 A 
ENDBRANCH   5  12
BRANCH   7  18
ATOM     18  O   UNL d   1      13.579 -22.943  -6.153  0.00  0.00    -0.360 OA
ATOM     19  H   UNL d   1      12.967 -22.916  -6.244  0.00  0.00     0.217 HD
ENDBRANCH   7  18
BRANCH  10  20
ATOM     20  O   UNL d   1      16.403 -21.243  -4.861  0.00  0.00    -0.361 OA
ATOM     21  H   UNL d   1      16.925 -21.419  -5.146  0.00  0.00     0.217 HD
ENDBRANCH  10  20
TORSDOF 3
ENDMDL
