MODEL 1
REMARK VINA RESULT:    -8.195      0.000      0.000
REMARK INTER + INTRA:           1.351
REMARK INTER:                 -11.100
REMARK INTRA:                  12.451
REMARK UNBOUND:                12.421
REMARK  9 active torsions:
REMARK  status: ('A' for Active; 'I' for Inactive)
REMARK    1  A    between atoms: C_15  and  O_2 
REMARK    2  A    between atoms: O_2  and  C_17 
REMARK    3  A    between atoms: C_11  and  O_3 
REMARK    4  A    between atoms: C_12  and  O_4 
REMARK    5  A    between atoms: C_13  and  O_5 
REMARK    6  A    between atoms: O_8  and  C_23 
REMARK    7  A    between atoms: O_9  and  C_28 
REMARK    8  A    between atoms: O_10  and  C_31 
REMARK    9  A    between atoms: C_18  and  C_22 
ROOT
ATOM      1  O   UNL d   1      13.500 -20.233  -3.841  0.00  0.00    -0.306 OA
ATOM      2  O   UNL d   1      13.464 -17.575  -5.232  0.00  0.00    -0.284 OA
ATOM      3  C   UNL d   1      13.844 -19.265  -5.235  0.00  0.00     0.157 A 
ATOM      4  C   UNL d   1      13.855 -20.151  -4.772  0.00  0.00     0.123 A 
ATOM      5  C   UNL d   1      13.476 -18.461  -4.768  0.00  0.00     0.223 A 
ATOM      6  C   UNL d   1      13.120 -18.543  -3.837  0.00  0.00     0.084 A 
ATOM      7  C   UNL d   1      13.132 -19.429  -3.373  0.00  0.00     0.096 A 
ATOM      8  C   UNL d   1      12.740 -17.697  -3.363  0.00  0.00     0.085 A 
ATOM      9  C   UNL d   1      12.765 -19.530  -2.403  0.00  0.00     0.075 A 
ATOM     10  C   UNL d   1      12.368 -17.774  -2.393  0.00  0.00     0.074 A 
ATOM     11  C   UNL d   1      12.380 -18.697  -1.910  0.00  0.00     0.071 A 
ENDROOT
BRANCH   3  12
ATOM     12  O   UNL d   1      14.199 -19.184  -6.166  0.00  0.00    -0.311 OA
BRANCH  12  13
ATOM     13  C   UNL d   1      13.576 -18.993  -6.925  0.00  0.00     0.298 A 
ATOM     14  O   UNL d   1      12.634 -19.328  -6.894  0.00  0.00    -0.351 OA
ATOM     15  C   UNL d   1      12.011 -19.137  -7.653  0.00  0.00     0.152 A 
ATOM     16  C   UNL d   1      12.330 -18.612  -8.442  0.00  0.00     0.178 A 
ATOM     17  C   UNL d   1      11.069 -19.472  -7.622  0.00  0.00     0.042 C 
ATOM     18  C   UNL d   1      13.272 -18.277  -8.472  0.00  0.00     0.183 A 
ATOM     19  C   UNL d   1      13.895 -18.468  -7.714  0.00  0.00     0.205 A 
BRANCH  16  20
ATOM     20  O   UNL d   1      11.707 -18.421  -9.200  0.00  0.00    -0.390 OA
ATOM     21  H   UNL d   1      11.453 -18.889  -9.518  0.00  0.00     0.210 HD
ENDBRANCH  16  20
BRANCH  18  22
ATOM     22  O   UNL d   1      13.590 -17.752  -9.261  0.00  0.00    -0.390 OA
ATOM     23  H   UNL d   1      14.133 -17.453  -9.236  0.00  0.00     0.210 HD
ENDBRANCH  18  22
BRANCH  19  24
ATOM     24  O   UNL d   1      14.837 -18.133  -7.744  0.00  0.00    -0.388 OA
ATOM     25  H   UNL d   1      15.177 -18.118  -7.227  0.00  0.00     0.210 HD
ENDBRANCH  19  24
ENDBRANCH  12  13
ENDBRANCH   3  12
BRANCH   4  26
ATOM     26  C   UNL d   1      14.223 -20.955  -5.239  0.00  0.00     0.001 A 
ATOM     27  C   UNL d   1      15.211 -21.056  -5.359  0.00  0.00     0.017 A 
ATOM     28  C   UNL d   1      15.579 -21.860  -5.826  0.00  0.00     0.037 A 
ATOM     29  C   UNL d   1      14.959 -22.563  -6.173  0.00  0.00     0.065 A 
ATOM     30  C   UNL d   1      13.971 -22.463  -6.053  0.00  0.00     0.037 A 
ATOM     31  C   UNL d   1      13.603 -21.659  -5.586  0.00  0.00     0.017 A 
BRANCH  29  32
ATOM     32  O   UNL d   1      15.326 -23.367  -6.640  0.00  0.00    -0.361 OA
ATOM     33  H   UNL d   1      15.926 -23.388  -6.796  0.00  0.00     0.217 HD
ENDBRANCH  29  32
ENDBRANCH   4  26
BRANCH   8  34
ATOM     34  O   UNL d   1      12.733 -16.816  -3.837  0.00  0.00    -0.360 OA
ATOM     35  H   UNL d   1      12.709 -16.289  -3.510  0.00  0.00     0.217 HD
ENDBRANCH   8  34
BRANCH  11  36
ATOM     36  O   UNL d   1      12.025 -18.782  -0.979  0.00  0.00    -0.361 OA
ATOM     37  H   UNL d   1      11.501 -18.493  -0.820  0.00  0.00     0.217 HD
ENDBRANCH  11  36
TORSDOF 9
ENDMDL
MODEL 2
REMARK VINA RESULT:    -7.873      1.586      3.964
REMARK INTER + INTRA:           1.786
REMARK INTER:                 -10.614
REMARK INTRA:                  12.400
REMARK UNBOUND:                12.421
REMARK  9 active torsions:
REMARK  status: ('A' for Active; 'I' for Inactive)
REMARK    1  A    between atoms: C_15  and  O_2 
REMARK    2  A    between atoms: O_2  and  C_17 
REMARK    3  A    between atoms: C_11  and  O_3 
REMARK    4  A    between atoms: C_12  and  O_4 
REMARK    5  A    between atoms: C_13  and  O_5 
REMARK    6  A    between atoms: O_8  and  C_23 
REMARK    7  A    between atoms: O_9  and  C_28 
REMARK    8  A    between atoms: O_10  and  C_31 
REMARK    9  A    between atoms: C_18  and  C_22 
ROOT
ATOM      1  O   UNL d   1      12.076 -16.809  -5.285  0.00  0.00    -0.306 OA
ATOM      2  O   UNL d   1      13.379 -18.854  -3.519  0.00  0.00    -0.284 OA
ATOM      3  C   UNL d   1      12.802 -18.368  -5.078  0.00  0.00     0.157 A 
ATOM      4  C   UNL d   1      12.367 -17.687  -5.667  0.00  0.00     0.123 A 
ATOM      5  C   UNL d   1      12.945 -18.172  -4.108  0.00  0.00     0.223 A 
ATOM      6  C   UNL d   1      12.653 -17.295  -3.726  0.00  0.00     0.084 A 
ATOM      7  C   UNL d   1      12.219 -16.614  -4.315  0.00  0.00     0.096 A 
ATOM      8  C   UNL d   1      12.809 -17.105  -2.714  0.00  0.00     0.085 A 
ATOM      9  C   UNL d   1      11.909 -15.695  -3.932  0.00  0.00     0.075 A 
ATOM     10  C   UNL d   1      12.508 -16.194  -2.309  0.00  0.00     0.074 A 
ATOM     11  C   UNL d   1      12.055 -15.484  -2.922  0.00  0.00     0.071 A 
ENDROOT
BRANCH   3  12
ATOM     12  O   UNL d   1      13.094 -19.245  -5.459  0.00  0.00    -0.311 OA
BRANCH  12  13
ATOM     13  C   UNL d   1      14.068 -19.452  -5.550  0.00  0.00     0.298 A 
ATOM     14  O   UNL d   1      14.738 -18.710  -5.560  0.00  0.00    -0.351 OA
ATOM     15  C   UNL d   1      15.712 -18.916  -5.650  0.00  0.00     0.152 A 
ATOM     16  C   UNL d   1      16.016 -19.865  -5.731  0.00  0.00     0.178 A 
ATOM     17  C   UNL d   1      16.382 -18.174  -5.660  0.00  0.00     0.042 C 
ATOM     18  C   UNL d   1      15.346 -20.608  -5.720  0.00  0.00     0.183 A 
ATOM     19  C   UNL d   1      14.372 -20.401  -5.630  0.00  0.00     0.205 A 
BRANCH  16  20
ATOM     20  O   UNL d   1      16.990 -20.072  -5.821  0.00  0.00    -0.390 OA
ATOM     21  H   UNL d   1      17.176 -20.537  -6.187  0.00  0.00     0.210 HD
ENDBRANCH  16  20
BRANCH  18  22
ATOM     22  O   UNL d   1      15.651 -21.557  -5.801  0.00  0.00    -0.390 OA
ATOM     23  H   UNL d   1      15.250 -22.020  -5.706  0.00  0.00     0.210 HD
ENDBRANCH  18  22
BRANCH  19  24
ATOM     24  O   UNL d   1      13.702 -21.144  -5.620  0.00  0.00    -0.388 OA
ATOM     25  H   UNL d   1      13.436 -21.328  -6.148  0.00  0.00     0.210 HD
ENDBRANCH  19  24
ENDBRANCH  12  13
ENDBRANCH   3  12
BRANCH   4  26
ATOM     26  C   UNL d   1      12.225 -17.882  -6.637  0.00  0.00     0.001 A 
ATOM     27  C   UNL d   1      12.806 -17.448  -7.325  0.00  0.00     0.017 A 
ATOM     28  C   UNL d   1      12.663 -17.644  -8.295  0.00  0.00     0.037 A 
ATOM     29  C   UNL d   1      11.939 -18.274  -8.577  0.00  0.00     0.065 A 
ATOM     30  C   UNL d   1      11.358 -18.708  -7.889  0.00  0.00     0.037 A 
ATOM     31  C   UNL d   1      11.501 -18.512  -6.918  0.00  0.00     0.017 A 
BRANCH  29  32
ATOM     32  O   UNL d   1      11.796 -18.470  -9.547  0.00  0.00    -0.361 OA
ATOM     33  H   UNL d   1      11.561 -19.016  -9.722  0.00  0.00     0.217 HD
ENDBRANCH  29  32
ENDBRANCH   4  26
BRANCH   8  34
ATOM     34  O   UNL d   1      13.244 -17.794  -2.134  0.00  0.00    -0.360 OA
ATOM     35  H   UNL d   1      12.910 -18.098  -1.709  0.00  0.00     0.217 HD
ENDBRANCH   8  34
BRANCH  11  36
ATOM     36  O   UNL d   1      11.762 -14.605  -2.545  0.00  0.00    -0.361 OA
ATOM     37  H   UNL d   1      11.249 -14.573  -2.197  0.00  0.00     0.217 HD
ENDBRANCH  11  36
TORSDOF 9
ENDMDL
MODEL 3
REMARK VINA RESULT:    -7.802     15.725     17.752
REMARK INTER + INTRA:           1.883
REMARK INTER:                 -10.513
REMARK INTRA:                  12.396
REMARK UNBOUND:                12.421
REMARK  9 active torsions:
REMARK  status: ('A' for Active; 'I' for Inactive)
REMARK    1  A    between atoms: C_15  and  O_2 
REMARK    2  A    between atoms: O_2  and  C_17 
REMARK    3  A    between atoms: C_11  and  O_3 
REMARK    4  A    between atoms: C_12  and  O_4 
REMARK    5  A    between atoms: C_13  and  O_5 
REMARK    6  A    between atoms: O_8  and  C_23 
REMARK    7  A    between atoms: O_9  and  C_28 
REMARK    8  A    between atoms: O_10  and  C_31 
REMARK    9  A    between atoms: C_18  and  C_22 
ROOT
ATOM      1  O   UNL d   1      21.758 -24.462   7.211  0.00  0.00    -0.306 OA
ATOM      2  O   UNL d   1      21.510 -24.938  10.163  0.00  0.00    -0.284 OA
ATOM      3  C   UNL d   1      21.804 -25.540   8.566  0.00  0.00     0.157 A 
ATOM      4  C   UNL d   1      21.887 -25.382   7.582  0.00  0.00     0.123 A 
ATOM      5  C   UNL d   1      21.593 -24.779   9.179  0.00  0.00     0.223 A 
ATOM      6  C   UNL d   1      21.464 -23.860   8.808  0.00  0.00     0.084 A 
ATOM      7  C   UNL d   1      21.547 -23.701   7.824  0.00  0.00     0.096 A 
ATOM      8  C   UNL d   1      21.244 -23.077   9.459  0.00  0.00     0.085 A 
ATOM      9  C   UNL d   1      21.415 -22.748   7.423  0.00  0.00     0.075 A 
ATOM     10  C   UNL d   1      21.108 -22.116   9.080  0.00  0.00     0.074 A 
ATOM     11  C   UNL d   1      21.194 -21.950   8.055  0.00  0.00     0.071 A 
ENDROOT
BRANCH   3  12
ATOM     12  O   UNL d   1      21.933 -26.460   8.937  0.00  0.00    -0.311 OA
BRANCH  12  13
ATOM     13  C   UNL d   1      21.154 -26.962   9.312  0.00  0.00     0.298 A 
ATOM     14  O   UNL d   1      20.225 -26.737   9.016  0.00  0.00    -0.351 OA
ATOM     15  C   UNL d   1      19.446 -27.239   9.391  0.00  0.00     0.152 A 
ATOM     16  C   UNL d   1      19.595 -27.966  10.062  0.00  0.00     0.178 A 
ATOM     17  C   UNL d   1      18.518 -27.013   9.096  0.00  0.00     0.042 C 
ATOM     18  C   UNL d   1      20.523 -28.191  10.357  0.00  0.00     0.183 A 
ATOM     19  C   UNL d   1      21.303 -27.689   9.982  0.00  0.00     0.205 A 
BRANCH  16  20
ATOM     20  O   UNL d   1      18.815 -28.467  10.436  0.00  0.00    -0.390 OA
ATOM     21  H   UNL d   1      18.517 -28.250  10.935  0.00  0.00     0.210 HD
ENDBRANCH  16  20
BRANCH  18  22
ATOM     22  O   UNL d   1      20.672 -28.918  11.027  0.00  0.00    -0.390 OA
ATOM     23  H   UNL d   1      20.714 -29.507  10.841  0.00  0.00     0.210 HD
ENDBRANCH  18  22
BRANCH  19  24
ATOM     24  O   UNL d   1      22.231 -27.914  10.278  0.00  0.00    -0.388 OA
ATOM     25  H   UNL d   1      22.323 -28.363  10.695  0.00  0.00     0.210 HD
ENDBRANCH  19  24
ENDBRANCH  12  13
ENDBRANCH   3  12
BRANCH   4  26
ATOM     26  C   UNL d   1      22.099 -26.143   6.969  0.00  0.00     0.001 A 
ATOM     27  C   UNL d   1      21.385 -26.528   6.384  0.00  0.00     0.017 A 
ATOM     28  C   UNL d   1      21.597 -27.289   5.771  0.00  0.00     0.037 A 
ATOM     29  C   UNL d   1      22.522 -27.666   5.743  0.00  0.00     0.065 A 
ATOM     30  C   UNL d   1      23.237 -27.281   6.328  0.00  0.00     0.037 A 
ATOM     31  C   UNL d   1      23.025 -26.520   6.941  0.00  0.00     0.017 A 
BRANCH  29  32
ATOM     32  O   UNL d   1      22.734 -28.427   5.130  0.00  0.00    -0.361 OA
ATOM     33  H   UNL d   1      23.317 -28.634   5.083  0.00  0.00     0.217 HD
ENDBRANCH  29  32
ENDBRANCH   4  26
BRANCH   8  34
ATOM     34  O   UNL d   1      21.163 -23.246  10.441  0.00  0.00    -0.360 OA
ATOM     35  H   UNL d   1      21.324 -22.805  10.846  0.00  0.00     0.217 HD
ENDBRANCH   8  34
BRANCH  11  36
ATOM     36  O   UNL d   1      21.066 -21.032   7.680  0.00  0.00    -0.361 OA
ATOM     37  H   UNL d   1      20.686 -20.944   7.198  0.00  0.00     0.217 HD
ENDBRANCH  11  36
TORSDOF 9
ENDMDL
MODEL 4
REMARK VINA RESULT:    -7.615      7.024      9.015
REMARK INTER + INTRA:           2.134
REMARK INTER:                 -10.500
REMARK INTRA:                  12.635
REMARK UNBOUND:                12.421
REMARK  9 active torsions:
REMARK  status: ('A' for Active; 'I' for Inactive)
REMARK    1  A    between atoms: C_15  and  O_2 
REMARK    2  A    between atoms: O_2  and  C_17 
REMARK    3  A    between atoms: C_11  and  O_3 
REMARK    4  A    between atoms: C_12  and  O_4 
REMARK    5  A    between atoms: C_13  and  O_5 
REMARK    6  A    between atoms: O_8  and  C_23 
REMARK    7  A    between atoms: O_9  and  C_28 
REMARK    8  A    between atoms: O_10  and  C_31 
REMARK    9  A    between atoms: C_18  and  C_22 
ROOT
ATOM      1  O   UNL d   1       8.230 -26.392  -2.457  0.00  0.00    -0.306 OA
ATOM      2  O   UNL d   1      10.541 -26.895  -0.611  0.00  0.00    -0.284 OA
ATOM      3  C   UNL d   1       9.884 -26.844  -2.213  0.00  0.00     0.157 A 
ATOM      4  C   UNL d   1       9.114 -26.676  -2.828  0.00  0.00     0.123 A 
ATOM      5  C   UNL d   1       9.771 -26.727  -1.226  0.00  0.00     0.223 A 
ATOM      6  C   UNL d   1       8.887 -26.443  -0.855  0.00  0.00     0.084 A 
ATOM      7  C   UNL d   1       8.117 -26.275  -1.470  0.00  0.00     0.096 A 
ATOM      8  C   UNL d   1       8.783 -26.325   0.175  0.00  0.00     0.085 A 
ATOM      9  C   UNL d   1       7.189 -25.979  -1.098  0.00  0.00     0.075 A 
ATOM     10  C   UNL d   1       7.865 -26.030   0.569  0.00  0.00     0.074 A 
ATOM     11  C   UNL d   1       7.063 -25.855  -0.071  0.00  0.00     0.071 A 
ENDROOT
BRANCH   3  12
ATOM     12  O   UNL d   1      10.768 -27.128  -2.584  0.00  0.00    -0.311 OA
BRANCH  12  13
ATOM     13  C   UNL d   1      11.563 -26.528  -2.497  0.00  0.00     0.298 A 
ATOM     14  O   UNL d   1      11.438 -25.538  -2.426  0.00  0.00    -0.351 OA
ATOM     15  C   UNL d   1      12.233 -24.938  -2.339  0.00  0.00     0.152 A 
ATOM     16  C   UNL d   1      13.154 -25.327  -2.324  0.00  0.00     0.178 A 
ATOM     17  C   UNL d   1      12.107 -23.948  -2.268  0.00  0.00     0.042 C 
ATOM     18  C   UNL d   1      13.280 -26.316  -2.395  0.00  0.00     0.183 A 
ATOM     19  C   UNL d   1      12.485 -26.917  -2.481  0.00  0.00     0.205 A 
BRANCH  16  20
ATOM     20  O   UNL d   1      13.949 -24.727  -2.237  0.00  0.00    -0.390 OA
ATOM     21  H   UNL d   1      14.509 -24.927  -2.411  0.00  0.00     0.210 HD
ENDBRANCH  16  20
BRANCH  18  22
ATOM     22  O   UNL d   1      14.201 -26.706  -2.379  0.00  0.00    -0.390 OA
ATOM     23  H   UNL d   1      14.314 -27.221  -2.053  0.00  0.00     0.210 HD
ENDBRANCH  18  22
BRANCH  19  24
ATOM     24  O   UNL d   1      12.611 -27.906  -2.552  0.00  0.00    -0.388 OA
ATOM     25  H   UNL d   1      12.846 -28.224  -2.075  0.00  0.00     0.210 HD
ENDBRANCH  19  24
ENDBRANCH  12  13
ENDBRANCH   3  12
BRANCH   4  26
ATOM     26  C   UNL d   1       9.228 -26.793  -3.815  0.00  0.00     0.001 A 
ATOM     27  C   UNL d   1       9.433 -27.696  -4.191  0.00  0.00     0.017 A 
ATOM     28  C   UNL d   1       9.547 -27.813  -5.177  0.00  0.00     0.037 A 
ATOM     29  C   UNL d   1       9.456 -27.026  -5.788  0.00  0.00     0.065 A 
ATOM     30  C   UNL d   1       9.250 -26.123  -5.411  0.00  0.00     0.037 A 
ATOM     31  C   UNL d   1       9.136 -26.006  -4.425  0.00  0.00     0.017 A 
BRANCH  29  32
ATOM     32  O   UNL d   1       9.569 -27.143  -6.774  0.00  0.00    -0.361 OA
ATOM     33  H   UNL d   1       9.760 -27.687  -7.002  0.00  0.00     0.217 HD
ENDBRANCH  29  32
ENDBRANCH   4  26
BRANCH   8  34
ATOM     34  O   UNL d   1       9.560 -26.496   0.781  0.00  0.00    -0.360 OA
ATOM     35  H   UNL d   1      10.053 -26.118   0.768  0.00  0.00     0.217 HD
ENDBRANCH   8  34
BRANCH  11  36
ATOM     36  O   UNL d   1       6.177 -25.571   0.296  0.00  0.00    -0.361 OA
ATOM     37  H   UNL d   1       5.713 -25.429  -0.090  0.00  0.00     0.217 HD
ENDBRANCH  11  36
TORSDOF 9
ENDMDL
MODEL 5
REMARK VINA RESULT:    -7.610     21.963     25.052
REMARK INTER + INTRA:           2.142
REMARK INTER:                 -10.327
REMARK INTRA:                  12.468
REMARK UNBOUND:                12.421
REMARK  9 active torsions:
REMARK  status: ('A' for Active; 'I' for Inactive)
REMARK    1  A    between atoms: C_15  and  O_2 
REMARK    2  A    between atoms: O_2  and  C_17 
REMARK    3  A    between atoms: C_11  and  O_3 
REMARK    4  A    between atoms: C_12  and  O_4 
REMARK    5  A    between atoms: C_13  and  O_5 
REMARK    6  A    between atoms: O_8  and  C_23 
REMARK    7  A    between atoms: O_9  and  C_28 
REMARK    8  A    between atoms: O_10  and  C_31 
REMARK    9  A    between atoms: C_18  and  C_22 
ROOT
ATOM      1  O   UNL d   1      -0.474 -29.151 -21.651  0.00  0.00    -0.306 OA
ATOM      2  O   UNL d   1      -2.920 -30.305 -22.949  0.00  0.00    -0.284 OA
ATOM      3  C   UNL d   1      -2.169 -29.069 -21.995  0.00  0.00     0.157 A 
ATOM      4  C   UNL d   1      -1.354 -28.685 -21.562  0.00  0.00     0.123 A 
ATOM      5  C   UNL d   1      -2.105 -29.920 -22.517  0.00  0.00     0.223 A 
ATOM      6  C   UNL d   1      -1.224 -30.386 -22.605  0.00  0.00     0.084 A 
ATOM      7  C   UNL d   1      -0.409 -30.002 -22.172  0.00  0.00     0.096 A 
ATOM      8  C   UNL d   1      -1.173 -31.272 -23.152  0.00  0.00     0.085 A 
ATOM      9  C   UNL d   1       0.515 -30.476 -22.256  0.00  0.00     0.075 A 
ATOM     10  C   UNL d   1      -0.259 -31.763 -23.248  0.00  0.00     0.074 A 
ATOM     11  C   UNL d   1       0.591 -31.363 -22.798  0.00  0.00     0.071 A 
ENDROOT
BRANCH   3  12
ATOM     12  O   UNL d   1      -3.050 -28.603 -21.906  0.00  0.00    -0.311 OA
BRANCH  12  13
ATOM     13  C   UNL d   1      -3.447 -28.132 -22.694  0.00  0.00     0.298 A 
ATOM     14  O   UNL d   1      -2.869 -27.877 -23.468  0.00  0.00    -0.351 OA
ATOM     15  C   UNL d   1      -3.267 -27.406 -24.256  0.00  0.00     0.152 A 
ATOM     16  C   UNL d   1      -4.243 -27.190 -24.268  0.00  0.00     0.178 A 
ATOM     17  C   UNL d   1      -2.688 -27.150 -25.030  0.00  0.00     0.042 C 
ATOM     18  C   UNL d   1      -4.822 -27.445 -23.494  0.00  0.00     0.183 A 
ATOM     19  C   UNL d   1      -4.424 -27.916 -22.706  0.00  0.00     0.205 A 
BRANCH  16  20
ATOM     20  O   UNL d   1      -4.641 -26.719 -25.056  0.00  0.00    -0.390 OA
ATOM     21  H   UNL d   1      -4.358 -26.744 -25.607  0.00  0.00     0.210 HD
ENDBRANCH  16  20
BRANCH  18  22
ATOM     22  O   UNL d   1      -5.798 -27.230 -23.506  0.00  0.00    -0.390 OA
ATOM     23  H   UNL d   1      -6.001 -26.728 -23.808  0.00  0.00     0.210 HD
ENDBRANCH  18  22
BRANCH  19  24
ATOM     24  O   UNL d   1      -5.002 -28.172 -21.932  0.00  0.00    -0.388 OA
ATOM     25  H   UNL d   1      -5.039 -27.801 -21.436  0.00  0.00     0.210 HD
ENDBRANCH  19  24
ENDBRANCH  12  13
ENDBRANCH   3  12
BRANCH   4  26
ATOM     26  C   UNL d   1      -1.419 -27.834 -21.041  0.00  0.00     0.001 A 
ATOM     27  C   UNL d   1      -1.876 -27.826 -20.151  0.00  0.00     0.017 A 
ATOM     28  C   UNL d   1      -1.941 -26.976 -19.630  0.00  0.00     0.037 A 
ATOM     29  C   UNL d   1      -1.548 -26.132 -19.998  0.00  0.00     0.065 A 
ATOM     30  C   UNL d   1      -1.092 -26.140 -20.888  0.00  0.00     0.037 A 
ATOM     31  C   UNL d   1      -1.027 -26.991 -21.409  0.00  0.00     0.017 A 
BRANCH  29  32
ATOM     32  O   UNL d   1      -1.613 -25.282 -19.477  0.00  0.00    -0.361 OA
ATOM     33  H   UNL d   1      -1.134 -24.889 -19.463  0.00  0.00     0.217 HD
ENDBRANCH  29  32
ENDBRANCH   4  26
BRANCH   8  34
ATOM     34  O   UNL d   1      -1.994 -31.647 -23.580  0.00  0.00    -0.360 OA
ATOM     35  H   UNL d   1      -1.967 -31.875 -24.157  0.00  0.00     0.217 HD
ENDBRANCH   8  34
BRANCH  11  36
ATOM     36  O   UNL d   1       1.472 -31.827 -22.884  0.00  0.00    -0.361 OA
ATOM     37  H   UNL d   1       1.724 -31.912 -23.444  0.00  0.00     0.217 HD
ENDBRANCH  11  36
TORSDOF 9
ENDMDL
