MODEL 1
REMARK VINA RESULT:    -7.825      0.000      0.000
REMARK INTER + INTRA:          -7.531
REMARK INTER:                  -9.428
REMARK INTRA:                   1.897
REMARK UNBOUND:                 1.896
REMARK  5 active torsions:
REMARK  status: ('A' for Active; 'I' for Inactive)
REMARK    1  A    between atoms: O_2  and  C_13 
REMARK    2  A    between atoms: O_3  and  C_19 
REMARK    3  A    between atoms: O_5  and  C_17 
REMARK    4  A    between atoms: O_6  and  C_21 
REMARK    5  A    between atoms: C_8  and  C_10 
ROOT
ATOM      1  O   UNL d   1      12.030 -17.537  -5.712  0.00  0.00    -0.309 OA
ATOM      2  O   UNL d   1      14.921 -17.921  -6.413  0.00  0.00    -0.287 OA
ATOM      3  C   UNL d   1      13.251 -17.942  -6.871  0.00  0.00     0.081 A 
ATOM      4  C   UNL d   1      12.736 -17.388  -5.020  0.00  0.00     0.090 A 
ATOM      5  C   UNL d   1      12.287 -17.814  -6.638  0.00  0.00     0.095 A 
ATOM      6  C   UNL d   1      13.958 -17.793  -6.179  0.00  0.00     0.190 A 
ATOM      7  C   UNL d   1      13.700 -17.516  -5.254  0.00  0.00     0.094 A 
ATOM      8  C   UNL d   1      13.535 -18.230  -7.831  0.00  0.00     0.085 A 
ATOM      9  C   UNL d   1      11.540 -17.966  -7.348  0.00  0.00     0.075 A 
ATOM     10  C   UNL d   1      11.801 -18.255  -8.314  0.00  0.00     0.071 A 
ATOM     11  C   UNL d   1      12.804 -18.388  -8.557  0.00  0.00     0.074 A 
ENDROOT
BRANCH   4  12
ATOM     12  C   UNL d   1      12.478 -17.111  -4.094  0.00  0.00     0.001 A 
ATOM     13  C   UNL d   1      12.093 -16.202  -3.933  0.00  0.00     0.054 A 
ATOM     14  C   UNL d   1      11.836 -15.925  -3.008  0.00  0.00     0.102 A 
ATOM     15  C   UNL d   1      11.963 -16.557  -2.243  0.00  0.00     0.099 A 
ATOM     16  C   UNL d   1      12.348 -17.466  -2.404  0.00  0.00     0.040 A 
ATOM     17  C   UNL d   1      12.606 -17.743  -3.330  0.00  0.00     0.017 A 
BRANCH  14  18
ATOM     18  O   UNL d   1      11.451 -15.016  -2.847  0.00  0.00    -0.353 OA
ATOM     19  C   UNL d   1      10.998 -14.526  -3.592  0.00  0.00     0.210 C 
ENDBRANCH  14  18
BRANCH  15  20
ATOM     20  O   UNL d   1      11.705 -16.280  -1.318  0.00  0.00    -0.358 OA
ATOM     21  H   UNL d   1      11.181 -16.493  -1.065  0.00  0.00     0.217 HD
ENDBRANCH  15  20
ENDBRANCH   4  12
BRANCH   8  22
ATOM     22  O   UNL d   1      14.502 -18.355  -8.054  0.00  0.00    -0.360 OA
ATOM     23  H   UNL d   1      14.781 -17.967  -8.447  0.00  0.00     0.217 HD
ENDBRANCH   8  22
BRANCH  10  24
ATOM     24  O   UNL d   1      11.091 -18.403  -9.003  0.00  0.00    -0.361 OA
ATOM     25  H   UNL d   1      11.246 -18.612  -9.566  0.00  0.00     0.217 HD
ENDBRANCH  10  24
TORSDOF 5
ENDMDL
MODEL 2
REMARK VINA RESULT:    -7.608      1.416      5.111
REMARK INTER + INTRA:          -7.269
REMARK INTER:                  -9.371
REMARK INTRA:                   2.102
REMARK UNBOUND:                 1.896
REMARK  5 active torsions:
REMARK  status: ('A' for Active; 'I' for Inactive)
REMARK    1  A    between atoms: O_2  and  C_13 
REMARK    2  A    between atoms: O_3  and  C_19 
REMARK    3  A    between atoms: O_5  and  C_17 
REMARK    4  A    between atoms: O_6  and  C_21 
REMARK    5  A    between atoms: C_8  and  C_10 
ROOT
ATOM      1  O   UNL d   1      11.536 -16.483  -5.278  0.00  0.00    -0.309 OA
ATOM      2  O   UNL d   1      13.889 -17.383  -3.649  0.00  0.00    -0.287 OA
ATOM      3  C   UNL d   1      12.502 -16.364  -3.845  0.00  0.00     0.081 A 
ATOM      4  C   UNL d   1      12.138 -17.202  -5.624  0.00  0.00     0.090 A 
ATOM      5  C   UNL d   1      11.718 -16.064  -4.388  0.00  0.00     0.095 A 
ATOM      6  C   UNL d   1      13.104 -17.083  -4.192  0.00  0.00     0.190 A 
ATOM      7  C   UNL d   1      12.923 -17.502  -5.081  0.00  0.00     0.094 A 
ATOM      8  C   UNL d   1      12.704 -15.936  -2.917  0.00  0.00     0.085 A 
ATOM      9  C   UNL d   1      11.081 -15.316  -4.041  0.00  0.00     0.075 A 
ATOM     10  C   UNL d   1      11.264 -14.875  -3.115  0.00  0.00     0.071 A 
ATOM     11  C   UNL d   1      12.081 -15.187  -2.550  0.00  0.00     0.074 A 
ENDROOT
BRANCH   4  12
ATOM     12  C   UNL d   1      11.956 -17.621  -6.514  0.00  0.00     0.001 A 
ATOM     13  C   UNL d   1      12.069 -18.607  -6.635  0.00  0.00     0.054 A 
ATOM     14  C   UNL d   1      11.887 -19.026  -7.524  0.00  0.00     0.102 A 
ATOM     15  C   UNL d   1      11.592 -18.459  -8.293  0.00  0.00     0.099 A 
ATOM     16  C   UNL d   1      11.479 -17.472  -8.172  0.00  0.00     0.040 A 
ATOM     17  C   UNL d   1      11.661 -17.053  -7.283  0.00  0.00     0.017 A 
BRANCH  14  18
ATOM     18  O   UNL d   1      12.000 -20.012  -7.645  0.00  0.00    -0.353 OA
ATOM     19  C   UNL d   1      12.632 -20.519  -7.058  0.00  0.00     0.210 C 
ENDBRANCH  14  18
BRANCH  15  20
ATOM     20  O   UNL d   1      11.410 -18.878  -9.183  0.00  0.00    -0.358 OA
ATOM     21  H   UNL d   1      10.842 -18.850  -9.428  0.00  0.00     0.217 HD
ENDBRANCH  15  20
ENDBRANCH   4  12
BRANCH   8  22
ATOM     22  O   UNL d   1      13.491 -16.244  -2.383  0.00  0.00    -0.360 OA
ATOM     23  H   UNL d   1      13.481 -16.800  -2.109  0.00  0.00     0.217 HD
ENDBRANCH   8  22
BRANCH  10  24
ATOM     24  O   UNL d   1      10.659 -14.156  -2.772  0.00  0.00    -0.361 OA
ATOM     25  H   UNL d   1      10.873 -13.739  -2.366  0.00  0.00     0.217 HD
ENDBRANCH  10  24
TORSDOF 5
ENDMDL
MODEL 3
REMARK VINA RESULT:    -7.406     10.268     11.104
REMARK INTER + INTRA:          -7.025
REMARK INTER:                  -8.859
REMARK INTRA:                   1.834
REMARK UNBOUND:                 1.896
REMARK  5 active torsions:
REMARK  status: ('A' for Active; 'I' for Inactive)
REMARK    1  A    between atoms: O_2  and  C_13 
REMARK    2  A    between atoms: O_3  and  C_19 
REMARK    3  A    between atoms: O_5  and  C_17 
REMARK    4  A    between atoms: O_6  and  C_21 
REMARK    5  A    between atoms: C_8  and  C_10 
ROOT
ATOM      1  O   UNL d   1       8.025 -13.372 -14.114  0.00  0.00    -0.309 OA
ATOM      2  O   UNL d   1      10.070 -12.930 -16.264  0.00  0.00    -0.287 OA
ATOM      3  C   UNL d   1       8.911 -13.954 -15.483  0.00  0.00     0.081 A 
ATOM      4  C   UNL d   1       8.502 -12.495 -14.178  0.00  0.00     0.090 A 
ATOM      5  C   UNL d   1       8.230 -14.101 -14.766  0.00  0.00     0.095 A 
ATOM      6  C   UNL d   1       9.388 -13.077 -15.547  0.00  0.00     0.190 A 
ATOM      7  C   UNL d   1       9.183 -12.348 -14.894  0.00  0.00     0.094 A 
ATOM      8  C   UNL d   1       9.135 -14.704 -16.170  0.00  0.00     0.085 A 
ATOM      9  C   UNL d   1       7.725 -15.009 -14.687  0.00  0.00     0.075 A 
ATOM     10  C   UNL d   1       7.933 -15.774 -15.363  0.00  0.00     0.071 A 
ATOM     11  C   UNL d   1       8.643 -15.620 -16.109  0.00  0.00     0.074 A 
ENDROOT
BRANCH   4  12
ATOM     12  C   UNL d   1       8.297 -11.766 -13.525  0.00  0.00     0.001 A 
ATOM     13  C   UNL d   1       7.710 -11.003 -13.796  0.00  0.00     0.054 A 
ATOM     14  C   UNL d   1       7.505 -10.274 -13.143  0.00  0.00     0.102 A 
ATOM     15  C   UNL d   1       7.887 -10.307 -12.219  0.00  0.00     0.099 A 
ATOM     16  C   UNL d   1       8.474 -11.070 -11.949  0.00  0.00     0.040 A 
ATOM     17  C   UNL d   1       8.679 -11.800 -12.601  0.00  0.00     0.017 A 
BRANCH  14  18
ATOM     18  O   UNL d   1       6.918  -9.511 -13.414  0.00  0.00    -0.353 OA
ATOM     19  C   UNL d   1       6.458  -9.525 -14.301  0.00  0.00     0.210 C 
ENDBRANCH  14  18
BRANCH  15  20
ATOM     20  O   UNL d   1       7.682  -9.578 -11.567  0.00  0.00    -0.358 OA
ATOM     21  H   UNL d   1       7.590  -8.999 -11.768  0.00  0.00     0.217 HD
ENDBRANCH  15  20
ENDBRANCH   4  12
BRANCH   8  22
ATOM     22  O   UNL d   1       9.819 -14.546 -16.883  0.00  0.00    -0.360 OA
ATOM     23  H   UNL d   1      10.145 -15.021 -17.109  0.00  0.00     0.217 HD
ENDBRANCH   8  22
BRANCH  10  24
ATOM     24  O   UNL d   1       7.454 -16.649 -15.296  0.00  0.00    -0.361 OA
ATOM     25  H   UNL d   1       7.387 -17.005 -15.799  0.00  0.00     0.217 HD
ENDBRANCH  10  24
TORSDOF 5
ENDMDL
MODEL 4
REMARK VINA RESULT:    -7.396      1.281      1.449
REMARK INTER + INTRA:          -7.014
REMARK INTER:                  -9.238
REMARK INTRA:                   2.224
REMARK UNBOUND:                 1.896
REMARK  5 active torsions:
REMARK  status: ('A' for Active; 'I' for Inactive)
REMARK    1  A    between atoms: O_2  and  C_13 
REMARK    2  A    between atoms: O_3  and  C_19 
REMARK    3  A    between atoms: O_5  and  C_17 
REMARK    4  A    between atoms: O_6  and  C_21 
REMARK    5  A    between atoms: C_8  and  C_10 
ROOT
ATOM      1  O   UNL d   1      11.890 -17.050  -5.700  0.00  0.00    -0.309 OA
ATOM      2  O   UNL d   1      13.865 -19.186  -4.966  0.00  0.00    -0.287 OA
ATOM      3  C   UNL d   1      12.739 -18.508  -6.094  0.00  0.00     0.081 A 
ATOM      4  C   UNL d   1      12.358 -17.016  -4.817  0.00  0.00     0.090 A 
ATOM      5  C   UNL d   1      12.081 -17.796  -6.338  0.00  0.00     0.095 A 
ATOM      6  C   UNL d   1      13.207 -18.474  -5.210  0.00  0.00     0.190 A 
ATOM      7  C   UNL d   1      13.017 -17.728  -4.572  0.00  0.00     0.094 A 
ATOM      8  C   UNL d   1      12.948 -19.290  -6.748  0.00  0.00     0.085 A 
ATOM      9  C   UNL d   1      11.586 -17.817  -7.255  0.00  0.00     0.075 A 
ATOM     10  C   UNL d   1      11.779 -18.591  -7.925  0.00  0.00     0.071 A 
ATOM     11  C   UNL d   1      12.464 -19.332  -7.670  0.00  0.00     0.074 A 
ENDROOT
BRANCH   4  12
ATOM     12  C   UNL d   1      12.168 -16.271  -4.178  0.00  0.00     0.001 A 
ATOM     13  C   UNL d   1      11.343 -15.716  -4.289  0.00  0.00     0.054 A 
ATOM     14  C   UNL d   1      11.152 -14.970  -3.650  0.00  0.00     0.102 A 
ATOM     15  C   UNL d   1      11.787 -14.779  -2.901  0.00  0.00     0.099 A 
ATOM     16  C   UNL d   1      12.611 -15.334  -2.791  0.00  0.00     0.040 A 
ATOM     17  C   UNL d   1      12.802 -16.079  -3.429  0.00  0.00     0.017 A 
BRANCH  14  18
ATOM     18  O   UNL d   1      10.328 -14.416  -3.761  0.00  0.00    -0.353 OA
ATOM     19  C   UNL d   1       9.572 -14.750  -4.324  0.00  0.00     0.210 C 
ENDBRANCH  14  18
BRANCH  15  20
ATOM     20  O   UNL d   1      11.596 -14.034  -2.263  0.00  0.00    -0.358 OA
ATOM     21  H   UNL d   1      11.261 -13.546  -2.447  0.00  0.00     0.217 HD
ENDBRANCH  15  20
ENDBRANCH   4  12
BRANCH   8  22
ATOM     22  O   UNL d   1      13.608 -19.996  -6.493  0.00  0.00    -0.360 OA
ATOM     23  H   UNL d   1      13.739 -20.096  -5.896  0.00  0.00     0.217 HD
ENDBRANCH   8  22
BRANCH  10  24
ATOM     24  O   UNL d   1      11.309 -18.621  -8.807  0.00  0.00    -0.361 OA
ATOM     25  H   UNL d   1      10.881 -18.194  -8.945  0.00  0.00     0.217 HD
ENDBRANCH  10  24
TORSDOF 5
ENDMDL
MODEL 5
REMARK VINA RESULT:    -7.361      9.855     12.224
REMARK INTER + INTRA:          -6.971
REMARK INTER:                  -8.830
REMARK INTRA:                   1.859
REMARK UNBOUND:                 1.896
REMARK  5 active torsions:
REMARK  status: ('A' for Active; 'I' for Inactive)
REMARK    1  A    between atoms: O_2  and  C_13 
REMARK    2  A    between atoms: O_3  and  C_19 
REMARK    3  A    between atoms: O_5  and  C_17 
REMARK    4  A    between atoms: O_6  and  C_21 
REMARK    5  A    between atoms: C_8  and  C_10 
ROOT
ATOM      1  O   UNL d   1       8.593 -12.623 -13.700  0.00  0.00    -0.309 OA
ATOM      2  O   UNL d   1       6.695 -10.540 -14.729  0.00  0.00    -0.287 OA
ATOM      3  C   UNL d   1       7.790 -11.100 -13.510  0.00  0.00     0.081 A 
ATOM      4  C   UNL d   1       8.131 -12.757 -14.576  0.00  0.00     0.090 A 
ATOM      5  C   UNL d   1       8.423 -11.795 -13.167  0.00  0.00     0.095 A 
ATOM      6  C   UNL d   1       7.328 -11.235 -14.386  0.00  0.00     0.190 A 
ATOM      7  C   UNL d   1       7.498 -12.063 -14.919  0.00  0.00     0.094 A 
ATOM      8  C   UNL d   1       7.604 -10.233 -12.965  0.00  0.00     0.085 A 
ATOM      9  C   UNL d   1       8.913 -11.669 -12.256  0.00  0.00     0.075 A 
ATOM     10  C   UNL d   1       8.741 -10.809 -11.694  0.00  0.00     0.071 A 
ATOM     11  C   UNL d   1       8.082 -10.086 -12.051  0.00  0.00     0.074 A 
ENDROOT
BRANCH   4  12
ATOM     12  C   UNL d   1       8.301 -13.586 -15.110  0.00  0.00     0.001 A 
ATOM     13  C   UNL d   1       8.867 -13.543 -15.933  0.00  0.00     0.054 A 
ATOM     14  C   UNL d   1       9.037 -14.372 -16.467  0.00  0.00     0.102 A 
ATOM     15  C   UNL d   1       8.641 -15.243 -16.177  0.00  0.00     0.099 A 
ATOM     16  C   UNL d   1       8.075 -15.286 -15.353  0.00  0.00     0.040 A 
ATOM     17  C   UNL d   1       7.905 -14.457 -14.820  0.00  0.00     0.017 A 
BRANCH  14  18
ATOM     18  O   UNL d   1       9.602 -14.329 -17.290  0.00  0.00    -0.353 OA
ATOM     19  C   UNL d   1       9.762 -13.451 -17.742  0.00  0.00     0.210 C 
ENDBRANCH  14  18
BRANCH  15  20
ATOM     20  O   UNL d   1       8.811 -16.072 -16.710  0.00  0.00    -0.358 OA
ATOM     21  H   UNL d   1       8.355 -16.481 -16.801  0.00  0.00     0.217 HD
ENDBRANCH  15  20
ENDBRANCH   4  12
BRANCH   8  22
ATOM     22  O   UNL d   1       6.969  -9.545 -13.318  0.00  0.00    -0.360 OA
ATOM     23  H   UNL d   1       7.142  -9.173 -13.782  0.00  0.00     0.217 HD
ENDBRANCH   8  22
BRANCH  10  24
ATOM     24  O   UNL d   1       9.205 -10.679 -10.818  0.00  0.00    -0.361 OA
ATOM     25  H   UNL d   1       9.647 -11.076 -10.640  0.00  0.00     0.217 HD
ENDBRANCH  10  24
TORSDOF 5
ENDMDL
