MODEL 1
REMARK VINA RESULT:   -11.943      0.000      0.000
REMARK INTER + INTRA:         -13.376
REMARK INTER:                 -14.724
REMARK INTRA:                   1.348
REMARK UNBOUND:                 1.359
REMARK  6 active torsions:
REMARK  status: ('A' for Active; 'I' for Inactive)
REMARK    1  A    between atoms: C_22  and  O_1 
REMARK    2  A    between atoms: C_24  and  O_2 
REMARK    3  A    between atoms: O_3  and  C_30 
REMARK    4  A    between atoms: O_4  and  C_33 
REMARK    5  A    between atoms: C_14  and  C_30 
REMARK    6  A    between atoms: C_19  and  C_33 
ROOT
ATOM      1  C   UNL d   1     -13.131  -0.233   4.749  0.00  0.00    -0.028 A 
ATOM      2  C   UNL d   1     -12.388  -0.083   4.097  0.00  0.00     0.007 A 
ATOM      3  C   UNL d   1     -11.509  -0.641   4.150  0.00  0.00    -0.033 A 
ATOM      4  C   UNL d   1     -13.968   0.309   4.685  0.00  0.00    -0.013 A 
ATOM      5  C   UNL d   1     -11.403  -1.363   4.892  0.00  0.00     0.007 A 
ATOM      6  C   UNL d   1     -13.047  -0.950   5.499  0.00  0.00     0.011 A 
ATOM      7  C   UNL d   1     -14.063   1.002   3.970  0.00  0.00    -0.069 A 
ATOM      8  C   UNL d   1     -12.178  -1.519   5.572  0.00  0.00     0.007 A 
ATOM      9  C   UNL d   1     -10.497  -1.956   4.968  0.00  0.00     0.010 A 
ATOM     10  C   UNL d   1     -14.929   1.575   3.891  0.00  0.00     0.038 A 
ATOM     11  C   UNL d   1     -12.482   0.609   3.381  0.00  0.00     0.033 A 
ATOM     12  C   UNL d   1     -10.716  -0.461   3.431  0.00  0.00     0.044 A 
ATOM     13  C   UNL d   1     -14.734   0.142   5.372  0.00  0.00     0.016 A 
ATOM     14  C   UNL d   1     -15.708   1.424   4.566  0.00  0.00     0.053 A 
ATOM     15  C   UNL d   1     -13.645  -0.617   5.515  0.00  0.00     0.016 C 
ATOM     16  C   UNL d   1     -15.609   0.703   5.312  0.00  0.00     0.022 A 
ATOM     17  C   UNL d   1      -9.691  -1.794   4.261  0.00  0.00     0.157 A 
ATOM     18  C   UNL d   1     -13.320   1.151   3.318  0.00  0.00    -0.022 A 
ATOM     19  C   UNL d   1      -9.801  -1.041   3.487  0.00  0.00     0.148 A 
ATOM     20  C   UNL d   1     -11.611   0.053   3.437  0.00  0.00     0.016 C 
ATOM     21  C   UNL d   1     -14.192  -0.264   5.474  0.00  0.00     0.021 C 
ATOM     22  C   UNL d   1     -15.009   2.319   3.106  0.00  0.00    -0.005 A 
ATOM     23  C   UNL d   1     -16.620   2.009   4.504  0.00  0.00     0.021 A 
ATOM     24  C   UNL d   1     -15.911   2.916   3.024  0.00  0.00    -0.014 A 
ATOM     25  C   UNL d   1     -10.876  -2.440   5.757  0.00  0.00     0.020 C 
ATOM     26  C   UNL d   1     -16.722   2.760   3.728  0.00  0.00     0.006 A 
ATOM     27  C   UNL d   1     -14.255   2.456   2.462  0.00  0.00     0.011 C 
ATOM     28  C   UNL d   1     -15.995   3.605   2.305  0.00  0.00     0.010 C 
ENDROOT
BRANCH   9  29
ATOM     29  C   UNL d   1      -9.963  -2.669   5.420  0.00  0.00     0.176 C 
BRANCH  29  30
ATOM     30  O   UNL d   1      -9.939  -2.720   6.419  0.00  0.00    -0.400 OA
ATOM     31  H   UNL d   1      -9.745  -3.238   6.698  0.00  0.00     0.209 HD
ENDBRANCH  29  30
ENDBRANCH   9  29
BRANCH  17  32
ATOM     32  O   UNL d   1      -8.852  -2.334   4.321  0.00  0.00    -0.392 OA
ATOM     33  H   UNL d   1      -8.554  -2.386   4.862  0.00  0.00     0.210 HD
ENDBRANCH  17  32
BRANCH  19  34
ATOM     34  O   UNL d   1      -9.064  -0.883   2.830  0.00  0.00    -0.393 OA
ATOM     35  H   UNL d   1      -9.038  -1.217   2.308  0.00  0.00     0.210 HD
ENDBRANCH  19  34
BRANCH  14  36
ATOM     36  C   UNL d   1     -16.455   1.281   5.215  0.00  0.00     0.149 C 
ATOM     37  O   UNL d   1     -16.497   1.820   6.056  0.00  0.00    -0.649 OA
BRANCH  36  38
ATOM     38  O   UNL d   1     -17.160   0.598   5.023  0.00  0.00    -0.776 OA
ATOM     39  H   UNL d   1     -17.275   0.148   5.434  0.00  0.00     0.167 HD
ENDBRANCH  36  38
ENDBRANCH  14  36
TORSDOF 6
ENDMDL
MODEL 2
REMARK VINA RESULT:   -11.666     27.169     29.541
REMARK INTER + INTRA:         -13.035
REMARK INTER:                 -14.341
REMARK INTRA:                   1.307
REMARK UNBOUND:                 1.359
REMARK  6 active torsions:
REMARK  status: ('A' for Active; 'I' for Inactive)
REMARK    1  A    between atoms: C_22  and  O_1 
REMARK    2  A    between atoms: C_24  and  O_2 
REMARK    3  A    between atoms: O_3  and  C_30 
REMARK    4  A    between atoms: O_4  and  C_33 
REMARK    5  A    between atoms: C_14  and  C_30 
REMARK    6  A    between atoms: C_19  and  C_33 
ROOT
ATOM      1  C   UNL d   1     -12.715 -11.648  31.008  0.00  0.00    -0.028 A 
ATOM      2  C   UNL d   1     -13.425 -11.006  30.720  0.00  0.00     0.007 A 
ATOM      3  C   UNL d   1     -13.207  -9.997  30.580  0.00  0.00    -0.033 A 
ATOM      4  C   UNL d   1     -12.939 -12.614  31.140  0.00  0.00    -0.013 A 
ATOM      5  C   UNL d   1     -12.238  -9.653  30.741  0.00  0.00     0.007 A 
ATOM      6  C   UNL d   1     -11.739 -11.327  31.175  0.00  0.00     0.011 A 
ATOM      7  C   UNL d   1     -13.872 -12.937  30.983  0.00  0.00    -0.069 A 
ATOM      8  C   UNL d   1     -11.498 -10.323  31.040  0.00  0.00     0.007 A 
ATOM      9  C   UNL d   1     -11.987  -8.606  30.600  0.00  0.00     0.010 A 
ATOM     10  C   UNL d   1     -14.120 -13.940  31.116  0.00  0.00     0.038 A 
ATOM     11  C   UNL d   1     -14.358 -11.329  30.564  0.00  0.00     0.033 A 
ATOM     12  C   UNL d   1     -13.994  -9.318  30.267  0.00  0.00     0.044 A 
ATOM     13  C   UNL d   1     -12.188 -13.272  31.440  0.00  0.00     0.016 A 
ATOM     14  C   UNL d   1     -13.386 -14.616  31.415  0.00  0.00     0.053 A 
ATOM     15  C   UNL d   1     -11.820 -11.998  31.284  0.00  0.00     0.016 C 
ATOM     16  C   UNL d   1     -12.414 -14.279  31.578  0.00  0.00     0.022 A 
ATOM     17  C   UNL d   1     -12.757  -7.909  30.288  0.00  0.00     0.157 A 
ATOM     18  C   UNL d   1     -14.582 -12.294  30.695  0.00  0.00    -0.022 A 
ATOM     19  C   UNL d   1     -13.767  -8.267  30.120  0.00  0.00     0.148 A 
ATOM     20  C   UNL d   1     -14.138 -10.327  30.425  0.00  0.00     0.016 C 
ATOM     21  C   UNL d   1     -11.965 -12.628  31.369  0.00  0.00     0.021 C 
ATOM     22  C   UNL d   1     -15.139 -14.267  30.940  0.00  0.00    -0.005 A 
ATOM     23  C   UNL d   1     -13.620 -15.665  31.560  0.00  0.00     0.021 A 
ATOM     24  C   UNL d   1     -15.397 -15.312  31.078  0.00  0.00    -0.014 A 
ATOM     25  C   UNL d   1     -11.039  -8.795  30.858  0.00  0.00     0.020 C 
ATOM     26  C   UNL d   1     -14.633 -16.016  31.390  0.00  0.00     0.006 A 
ATOM     27  C   UNL d   1     -15.837 -13.610  30.652  0.00  0.00     0.011 C 
ATOM     28  C   UNL d   1     -16.334 -15.624  30.918  0.00  0.00     0.010 C 
ENDROOT
BRANCH   9  29
ATOM     29  C   UNL d   1     -11.317  -7.865  30.616  0.00  0.00     0.176 C 
BRANCH  29  30
ATOM     30  O   UNL d   1     -10.340  -8.072  30.554  0.00  0.00    -0.400 OA
ATOM     31  H   UNL d   1      -9.922  -7.641  30.707  0.00  0.00     0.209 HD
ENDBRANCH  29  30
ENDBRANCH   9  29
BRANCH  17  32
ATOM     32  O   UNL d   1     -12.538  -6.943  30.156  0.00  0.00    -0.392 OA
ATOM     33  H   UNL d   1     -12.268  -6.755  29.630  0.00  0.00     0.210 HD
ENDBRANCH  17  32
BRANCH  19  34
ATOM     34  O   UNL d   1     -14.485  -7.633  29.832  0.00  0.00    -0.393 OA
ATOM     35  H   UNL d   1     -15.034  -7.851  29.643  0.00  0.00     0.210 HD
ENDBRANCH  19  34
BRANCH  14  36
ATOM     36  C   UNL d   1     -12.682 -15.265  31.703  0.00  0.00     0.149 C 
ATOM     37  O   UNL d   1     -12.152 -15.763  31.017  0.00  0.00    -0.649 OA
BRANCH  36  38
ATOM     38  O   UNL d   1     -12.507 -15.415  32.676  0.00  0.00    -0.776 OA
ATOM     39  H   UNL d   1     -12.863 -15.807  32.998  0.00  0.00     0.167 HD
ENDBRANCH  36  38
ENDBRANCH  14  36
TORSDOF 6
ENDMDL
MODEL 3
REMARK VINA RESULT:   -11.537     33.241     36.634
REMARK INTER + INTRA:         -12.876
REMARK INTER:                 -14.255
REMARK INTRA:                   1.380
REMARK UNBOUND:                 1.359
REMARK  6 active torsions:
REMARK  status: ('A' for Active; 'I' for Inactive)
REMARK    1  A    between atoms: C_22  and  O_1 
REMARK    2  A    between atoms: C_24  and  O_2 
REMARK    3  A    between atoms: O_3  and  C_30 
REMARK    4  A    between atoms: O_4  and  C_33 
REMARK    5  A    between atoms: C_14  and  C_30 
REMARK    6  A    between atoms: C_19  and  C_33 
ROOT
ATOM      1  C   UNL d   1      14.384 -18.541  -8.917  0.00  0.00    -0.028 A 
ATOM      2  C   UNL d   1      14.783 -17.649  -9.127  0.00  0.00     0.007 A 
ATOM      3  C   UNL d   1      14.202 -16.886  -9.536  0.00  0.00    -0.033 A 
ATOM      4  C   UNL d   1      14.954 -19.263  -8.524  0.00  0.00    -0.013 A 
ATOM      5  C   UNL d   1      13.194 -17.056  -9.728  0.00  0.00     0.007 A 
ATOM      6  C   UNL d   1      13.378 -18.733  -9.100  0.00  0.00     0.011 A 
ATOM      7  C   UNL d   1      15.923 -19.093  -8.342  0.00  0.00    -0.069 A 
ATOM      8  C   UNL d   1      12.778 -17.986  -9.509  0.00  0.00     0.007 A 
ATOM      9  C   UNL d   1      12.569 -16.277 -10.154  0.00  0.00     0.010 A 
ATOM     10  C   UNL d   1      16.529 -19.835  -7.934  0.00  0.00     0.038 A 
ATOM     11  C   UNL d   1      15.752 -17.478  -8.945  0.00  0.00     0.033 A 
ATOM     12  C   UNL d   1      14.657 -15.926  -9.756  0.00  0.00     0.044 A 
ATOM     13  C   UNL d   1      14.524 -20.188  -8.311  0.00  0.00     0.016 A 
ATOM     14  C   UNL d   1      16.120 -20.768  -7.712  0.00  0.00     0.053 A 
ATOM     15  C   UNL d   1      13.706 -19.271  -8.832  0.00  0.00     0.016 C 
ATOM     16  C   UNL d   1      15.111 -20.945  -7.902  0.00  0.00     0.022 A 
ATOM     17  C   UNL d   1      13.001 -15.310 -10.382  0.00  0.00     0.157 A 
ATOM     18  C   UNL d   1      16.321 -18.200  -8.553  0.00  0.00    -0.022 A 
ATOM     19  C   UNL d   1      14.052 -15.132 -10.182  0.00  0.00     0.148 A 
ATOM     20  C   UNL d   1      15.172 -16.724  -9.351  0.00  0.00     0.016 C 
ATOM     21  C   UNL d   1      14.077 -19.742  -8.576  0.00  0.00     0.021 C 
ATOM     22  C   UNL d   1      17.576 -19.627  -7.745  0.00  0.00    -0.005 A 
ATOM     23  C   UNL d   1      16.732 -21.557  -7.287  0.00  0.00     0.021 A 
ATOM     24  C   UNL d   1      18.207 -20.401  -7.320  0.00  0.00    -0.014 A 
ATOM     25  C   UNL d   1      11.782 -16.894 -10.136  0.00  0.00     0.020 C 
ATOM     26  C   UNL d   1      17.782 -21.372  -7.089  0.00  0.00     0.006 A 
ATOM     27  C   UNL d   1      17.958 -18.728  -7.962  0.00  0.00     0.011 C 
ATOM     28  C   UNL d   1      19.175 -20.219  -7.142  0.00  0.00     0.010 C 
ENDROOT
BRANCH   9  29
ATOM     29  C   UNL d   1      11.679 -15.963 -10.484  0.00  0.00     0.176 C 
BRANCH  29  30
ATOM     30  O   UNL d   1      10.845 -16.436 -10.203  0.00  0.00    -0.400 OA
ATOM     31  H   UNL d   1      10.846 -16.791  -9.695  0.00  0.00     0.209 HD
ENDBRANCH  29  30
ENDBRANCH   9  29
BRANCH  17  32
ATOM     32  O   UNL d   1      12.435 -14.585 -10.774  0.00  0.00    -0.392 OA
ATOM     33  H   UNL d   1      12.214 -14.132 -10.412  0.00  0.00     0.210 HD
ENDBRANCH  17  32
BRANCH  19  34
ATOM     34  O   UNL d   1      14.462 -14.244 -10.388  0.00  0.00    -0.393 OA
ATOM     35  H   UNL d   1      14.518 -13.817  -9.942  0.00  0.00     0.210 HD
ENDBRANCH  19  34
BRANCH  14  36
ATOM     36  C   UNL d   1      15.729 -21.663  -7.499  0.00  0.00     0.149 C 
ATOM     37  O   UNL d   1      15.482 -21.888  -6.557  0.00  0.00    -0.649 OA
BRANCH  36  38
ATOM     38  O   UNL d   1      15.584 -22.332  -8.228  0.00  0.00    -0.776 OA
ATOM     39  H   UNL d   1      15.431 -22.142  -8.797  0.00  0.00     0.167 HD
ENDBRANCH  36  38
ENDBRANCH  14  36
TORSDOF 6
ENDMDL
MODEL 4
REMARK VINA RESULT:   -11.274     19.123     22.232
REMARK INTER + INTRA:         -12.551
REMARK INTER:                 -13.872
REMARK INTRA:                   1.322
REMARK UNBOUND:                 1.359
REMARK  6 active torsions:
REMARK  status: ('A' for Active; 'I' for Inactive)
REMARK    1  A    between atoms: C_22  and  O_1 
REMARK    2  A    between atoms: C_24  and  O_2 
REMARK    3  A    between atoms: O_3  and  C_30 
REMARK    4  A    between atoms: O_4  and  C_33 
REMARK    5  A    between atoms: C_14  and  C_30 
REMARK    6  A    between atoms: C_19  and  C_33 
ROOT
ATOM      1  C   UNL d   1       8.471   4.268   5.599  0.00  0.00    -0.028 A 
ATOM      2  C   UNL d   1       8.686   5.220   5.816  0.00  0.00     0.007 A 
ATOM      3  C   UNL d   1       9.431   5.732   5.298  0.00  0.00    -0.033 A 
ATOM      4  C   UNL d   1       7.754   3.789   6.105  0.00  0.00    -0.013 A 
ATOM      5  C   UNL d   1       9.958   5.246   4.543  0.00  0.00     0.007 A 
ATOM      6  C   UNL d   1       8.986   3.762   4.848  0.00  0.00     0.011 A 
ATOM      7  C   UNL d   1       7.251   4.263   6.828  0.00  0.00    -0.069 A 
ATOM      8  C   UNL d   1       9.734   4.254   4.317  0.00  0.00     0.007 A 
ATOM      9  C   UNL d   1      10.738   5.759   3.990  0.00  0.00     0.010 A 
ATOM     10  C   UNL d   1       6.501   3.777   7.364  0.00  0.00     0.038 A 
ATOM     11  C   UNL d   1       8.184   5.693   6.540  0.00  0.00     0.033 A 
ATOM     12  C   UNL d   1       9.647   6.765   5.552  0.00  0.00     0.044 A 
ATOM     13  C   UNL d   1       7.541   2.798   5.866  0.00  0.00     0.016 A 
ATOM     14  C   UNL d   1       6.272   2.786   7.143  0.00  0.00     0.053 A 
ATOM     15  C   UNL d   1       8.510   3.374   5.152  0.00  0.00     0.016 C 
ATOM     16  C   UNL d   1       6.795   2.292   6.389  0.00  0.00     0.022 A 
ATOM     17  C   UNL d   1      10.972   6.791   4.225  0.00  0.00     0.157 A 
ATOM     18  C   UNL d   1       7.466   5.215   7.046  0.00  0.00    -0.022 A 
ATOM     19  C   UNL d   1      10.422   7.298   5.012  0.00  0.00     0.148 A 
ATOM     20  C   UNL d   1       8.924   6.199   6.023  0.00  0.00     0.016 C 
ATOM     21  C   UNL d   1       8.042   3.062   5.482  0.00  0.00     0.021 C 
ATOM     22  C   UNL d   1       5.970   4.311   8.145  0.00  0.00    -0.005 A 
ATOM     23  C   UNL d   1       5.495   2.259   7.688  0.00  0.00     0.021 A 
ATOM     24  C   UNL d   1       5.189   3.806   8.703  0.00  0.00    -0.014 A 
ATOM     25  C   UNL d   1      10.901   4.933   3.448  0.00  0.00     0.020 C 
ATOM     26  C   UNL d   1       4.949   2.773   8.473  0.00  0.00     0.006 A 
ATOM     27  C   UNL d   1       6.199   5.264   8.349  0.00  0.00     0.011 C 
ATOM     28  C   UNL d   1       4.693   4.289   9.424  0.00  0.00     0.010 C 
ENDROOT
BRANCH   9  29
ATOM     29  C   UNL d   1      11.442   5.757   3.279  0.00  0.00     0.176 C 
BRANCH  29  30
ATOM     30  O   UNL d   1      11.670   4.909   2.802  0.00  0.00    -0.400 OA
ATOM     31  H   UNL d   1      12.241   4.672   2.847  0.00  0.00     0.209 HD
ENDBRANCH  29  30
ENDBRANCH   9  29
BRANCH  17  32
ATOM     32  O   UNL d   1      11.688   7.273   3.722  0.00  0.00    -0.392 OA
ATOM     33  H   UNL d   1      11.628   7.878   3.598  0.00  0.00     0.210 HD
ENDBRANCH  17  32
BRANCH  19  34
ATOM     34  O   UNL d   1      10.629   8.250   5.238  0.00  0.00    -0.393 OA
ATOM     35  H   UNL d   1      10.797   8.645   4.791  0.00  0.00     0.210 HD
ENDBRANCH  19  34
BRANCH  14  36
ATOM     36  C   UNL d   1       6.051   1.834   6.931  0.00  0.00     0.149 C 
ATOM     37  O   UNL d   1       6.474   1.095   7.456  0.00  0.00    -0.649 OA
BRANCH  36  38
ATOM     38  O   UNL d   1       5.408   1.621   6.196  0.00  0.00    -0.776 OA
ATOM     39  H   UNL d   1       4.861   1.361   6.329  0.00  0.00     0.167 HD
ENDBRANCH  36  38
ENDBRANCH  14  36
TORSDOF 6
ENDMDL
MODEL 5
REMARK VINA RESULT:   -11.202     43.021     44.903
REMARK INTER + INTRA:         -12.462
REMARK INTER:                 -13.806
REMARK INTRA:                   1.344
REMARK UNBOUND:                 1.359
REMARK  6 active torsions:
REMARK  status: ('A' for Active; 'I' for Inactive)
REMARK    1  A    between atoms: C_22  and  O_1 
REMARK    2  A    between atoms: C_24  and  O_2 
REMARK    3  A    between atoms: O_3  and  C_30 
REMARK    4  A    between atoms: O_4  and  C_33 
REMARK    5  A    between atoms: C_14  and  C_30 
REMARK    6  A    between atoms: C_19  and  C_33 
ROOT
ATOM      1  C   UNL d   1      -3.379 -42.868  13.016  0.00  0.00    -0.028 A 
ATOM      2  C   UNL d   1      -2.499 -42.597  13.407  0.00  0.00     0.007 A 
ATOM      3  C   UNL d   1      -2.288 -42.761  14.414  0.00  0.00    -0.033 A 
ATOM      4  C   UNL d   1      -3.568 -42.704  12.048  0.00  0.00    -0.013 A 
ATOM      5  C   UNL d   1      -3.002 -43.213  15.021  0.00  0.00     0.007 A 
ATOM      6  C   UNL d   1      -4.108 -43.321  13.605  0.00  0.00     0.011 A 
ATOM      7  C   UNL d   1      -2.877 -42.269  11.471  0.00  0.00    -0.069 A 
ATOM      8  C   UNL d   1      -3.918 -43.496  14.615  0.00  0.00     0.007 A 
ATOM      9  C   UNL d   1      -2.804 -43.394  16.073  0.00  0.00     0.010 A 
ATOM     10  C   UNL d   1      -3.059 -42.092  10.460  0.00  0.00     0.038 A 
ATOM     11  C   UNL d   1      -1.808 -42.162  12.829  0.00  0.00     0.033 A 
ATOM     12  C   UNL d   1      -1.326 -42.458  14.815  0.00  0.00     0.044 A 
ATOM     13  C   UNL d   1      -4.489 -42.992  11.656  0.00  0.00     0.016 A 
ATOM     14  C   UNL d   1      -3.974 -42.371  10.046  0.00  0.00     0.053 A 
ATOM     15  C   UNL d   1      -4.305 -43.241  12.955  0.00  0.00     0.016 C 
ATOM     16  C   UNL d   1      -4.693 -42.824  10.648  0.00  0.00     0.022 A 
ATOM     17  C   UNL d   1      -1.850 -43.101  16.497  0.00  0.00     0.157 A 
ATOM     18  C   UNL d   1      -1.997 -41.998  11.861  0.00  0.00    -0.022 A 
ATOM     19  C   UNL d   1      -1.106 -42.629  15.864  0.00  0.00     0.148 A 
ATOM     20  C   UNL d   1      -1.602 -42.326  13.830  0.00  0.00     0.016 C 
ATOM     21  C   UNL d   1      -4.428 -43.134  12.323  0.00  0.00     0.021 C 
ATOM     22  C   UNL d   1      -2.295 -41.619   9.854  0.00  0.00    -0.005 A 
ATOM     23  C   UNL d   1      -4.187 -42.197   8.997  0.00  0.00     0.021 A 
ATOM     24  C   UNL d   1      -2.485 -41.434   8.802  0.00  0.00    -0.014 A 
ATOM     25  C   UNL d   1      -3.712 -43.801  16.177  0.00  0.00     0.020 C 
ATOM     26  C   UNL d   1      -3.437 -41.725   8.370  0.00  0.00     0.006 A 
ATOM     27  C   UNL d   1      -1.420 -41.354  10.261  0.00  0.00     0.011 C 
ATOM     28  C   UNL d   1      -1.787 -40.998   8.233  0.00  0.00     0.010 C 
ENDROOT
BRANCH   9  29
ATOM     29  C   UNL d   1      -3.098 -43.741  16.964  0.00  0.00     0.176 C 
BRANCH  29  30
ATOM     30  O   UNL d   1      -3.603 -44.602  17.024  0.00  0.00    -0.400 OA
ATOM     31  H   UNL d   1      -3.622 -44.913  17.560  0.00  0.00     0.209 HD
ENDBRANCH  29  30
ENDBRANCH   9  29
BRANCH  17  32
ATOM     32  O   UNL d   1      -1.657 -43.263  17.464  0.00  0.00    -0.392 OA
ATOM     33  H   UNL d   1      -1.253 -42.901  17.765  0.00  0.00     0.210 HD
ENDBRANCH  17  32
BRANCH  19  34
ATOM     34  O   UNL d   1      -0.223 -42.354  16.244  0.00  0.00    -0.393 OA
ATOM     35  H   UNL d   1       0.118 -42.762  16.564  0.00  0.00     0.210 HD
ENDBRANCH  19  34
BRANCH  14  36
ATOM     36  C   UNL d   1      -4.851 -42.639   9.649  0.00  0.00     0.149 C 
ATOM     37  O   UNL d   1      -5.621 -42.002   9.663  0.00  0.00    -0.649 OA
BRANCH  36  38
ATOM     38  O   UNL d   1      -4.958 -43.544   9.237  0.00  0.00    -0.776 OA
ATOM     39  H   UNL d   1      -4.464 -43.908   9.157  0.00  0.00     0.167 HD
ENDBRANCH  36  38
ENDBRANCH  14  36
TORSDOF 6
ENDMDL
