MODEL 1
REMARK VINA RESULT:     0.000      0.000      0.000
REMARK INTER + INTRA:           2.211
REMARK INTER:                   0.000
REMARK INTRA:                   2.211
REMARK UNBOUND:                 2.211
REMARK  5 active torsions:
REMARK  status: ('A' for Active; 'I' for Inactive)
REMARK    1  A    between atoms: O_3  and  C_16 
REMARK    2  A    between atoms: O_4  and  C_17 
REMARK    3  A    between atoms: O_7  and  C_20 
REMARK    4  A    between atoms: O_8  and  C_21 
REMARK    5  A    between atoms: C_9  and  C_16 
ROOT
ATOM      1  O   UNL d   1     -35.350  31.509 -13.753  0.00  0.00    -0.271 OA
ATOM      2  O   UNL d   1     -34.833  32.812 -11.990  0.00  0.00    -0.290 OA
ATOM      3  O   UNL d   1     -36.081  30.979 -15.232  0.00  0.00    -0.259 OA
ATOM      4  C   UNL d   1     -33.683  30.506 -12.094  0.00  0.00     0.128 A 
ATOM      5  C   UNL d   1     -34.235  30.479 -12.921  0.00  0.00     0.008 A 
ATOM      6  C   UNL d   1     -33.840  31.380 -11.647  0.00  0.00     0.106 A 
ATOM      7  C   UNL d   1     -34.735  31.343 -12.984  0.00  0.00     0.133 A 
ATOM      8  C   UNL d   1     -34.349  29.783 -13.628  0.00  0.00     0.026 A 
ATOM      9  C   UNL d   1     -34.489  31.896 -12.195  0.00  0.00     0.184 A 
ATOM     10  C   UNL d   1     -34.965  29.949 -14.399  0.00  0.00     0.056 A 
ATOM     11  C   UNL d   1     -33.821  28.888 -13.549  0.00  0.00     0.113 A 
ATOM     12  C   UNL d   1     -35.466  30.812 -14.462  0.00  0.00     0.299 A 
ATOM     13  C   UNL d   1     -35.095  29.232 -15.144  0.00  0.00     0.058 A 
ATOM     14  C   UNL d   1     -33.936  28.157 -14.283  0.00  0.00     0.133 A 
ATOM     15  C   UNL d   1     -34.577  28.331 -15.086  0.00  0.00     0.102 A 
ENDROOT
BRANCH   4  16
ATOM     16  C   UNL d   1     -33.035  30.158 -11.417  0.00  0.00     0.148 C 
ATOM     17  O   UNL d   1     -33.366  29.637 -10.630  0.00  0.00    -0.649 OA
BRANCH  16  18
ATOM     18  O   UNL d   1     -32.057  30.330 -11.526  0.00  0.00    -0.776 OA
ATOM     19  H   UNL d   1     -31.732  30.581 -11.061  0.00  0.00     0.167 HD
ENDBRANCH  16  18
ENDBRANCH   4  16
BRANCH  11  20
ATOM     20  O   UNL d   1     -33.209  28.732 -12.775  0.00  0.00    -0.357 OA
ATOM     21  H   UNL d   1     -33.181  29.146 -12.314  0.00  0.00     0.217 HD
ENDBRANCH  11  20
BRANCH  14  22
ATOM     22  O   UNL d   1     -33.434  27.295 -14.217  0.00  0.00    -0.356 OA
ATOM     23  H   UNL d   1     -32.815  27.296 -14.222  0.00  0.00     0.218 HD
ENDBRANCH  14  22
BRANCH  15  24
ATOM     24  O   UNL d   1     -34.694  27.636 -15.794  0.00  0.00    -0.358 OA
ATOM     25  H   UNL d   1     -35.147  27.695 -16.214  0.00  0.00     0.217 HD
ENDBRANCH  15  24
TORSDOF 5
ENDMDL
MODEL 2
REMARK VINA RESULT:     0.000     46.229     48.365
REMARK INTER + INTRA:           2.211
REMARK INTER:                   0.000
REMARK INTRA:                   2.211
REMARK UNBOUND:                 2.211
REMARK  5 active torsions:
REMARK  status: ('A' for Active; 'I' for Inactive)
REMARK    1  A    between atoms: O_3  and  C_16 
REMARK    2  A    between atoms: O_4  and  C_17 
REMARK    3  A    between atoms: O_7  and  C_20 
REMARK    4  A    between atoms: O_8  and  C_21 
REMARK    5  A    between atoms: C_9  and  C_16 
ROOT
ATOM      1  O   UNL d   1      10.437  29.492   0.720  0.00  0.00    -0.271 OA
ATOM      2  O   UNL d   1       8.958  27.799   0.586  0.00  0.00    -0.290 OA
ATOM      3  O   UNL d   1      11.272  30.964   0.346  0.00  0.00    -0.259 OA
ATOM      4  C   UNL d   1      10.655  27.693   2.525  0.00  0.00     0.128 A 
ATOM      5  C   UNL d   1      10.927  28.541   2.082  0.00  0.00     0.008 A 
ATOM      6  C   UNL d   1       9.888  27.314   2.020  0.00  0.00     0.106 A 
ATOM      7  C   UNL d   1      10.322  28.685   1.298  0.00  0.00     0.133 A 
ATOM      8  C   UNL d   1      11.646  29.204   2.287  0.00  0.00     0.026 A 
ATOM      9  C   UNL d   1       9.682  27.925   1.264  0.00  0.00     0.184 A 
ATOM     10  C   UNL d   1      11.762  30.012   1.708  0.00  0.00     0.056 A 
ATOM     11  C   UNL d   1      12.269  29.040   3.106  0.00  0.00     0.113 A 
ATOM     12  C   UNL d   1      11.157  30.157   0.925  0.00  0.00     0.299 A 
ATOM     13  C   UNL d   1      12.506  30.712   1.909  0.00  0.00     0.058 A 
ATOM     14  C   UNL d   1      13.020  29.728   3.325  0.00  0.00     0.133 A 
ATOM     15  C   UNL d   1      13.140  30.569   2.722  0.00  0.00     0.102 A 
ENDROOT
BRANCH   4  16
ATOM     16  C   UNL d   1      10.700  26.965   3.208  0.00  0.00     0.148 C 
ATOM     17  O   UNL d   1      10.173  27.041   4.055  0.00  0.00    -0.649 OA
BRANCH  16  18
ATOM     18  O   UNL d   1      11.272  26.162   3.046  0.00  0.00    -0.776 OA
ATOM     19  H   UNL d   1      11.587  25.904   3.514  0.00  0.00     0.167 HD
ENDBRANCH  16  18
ENDBRANCH   4  16
BRANCH  11  20
ATOM     20  O   UNL d   1      12.145  28.230   3.677  0.00  0.00    -0.357 OA
ATOM     21  H   UNL d   1      11.628  28.164   4.013  0.00  0.00     0.217 HD
ENDBRANCH  11  20
BRANCH  14  22
ATOM     22  O   UNL d   1      13.623  29.581   4.109  0.00  0.00    -0.356 OA
ATOM     23  H   UNL d   1      13.796  29.006   4.264  0.00  0.00     0.218 HD
ENDBRANCH  14  22
BRANCH  15  24
ATOM     24  O   UNL d   1      13.858  31.234   2.925  0.00  0.00    -0.358 OA
ATOM     25  H   UNL d   1      13.750  31.695   3.325  0.00  0.00     0.217 HD
ENDBRANCH  15  24
TORSDOF 5
ENDMDL
MODEL 3
REMARK VINA RESULT:     0.000     63.110     65.296
REMARK INTER + INTRA:           2.211
REMARK INTER:                   0.000
REMARK INTRA:                   2.211
REMARK UNBOUND:                 2.211
REMARK  5 active torsions:
REMARK  status: ('A' for Active; 'I' for Inactive)
REMARK    1  A    between atoms: O_3  and  C_16 
REMARK    2  A    between atoms: O_4  and  C_17 
REMARK    3  A    between atoms: O_7  and  C_20 
REMARK    4  A    between atoms: O_8  and  C_21 
REMARK    5  A    between atoms: C_9  and  C_16 
ROOT
ATOM      1  O   UNL d   1      17.242  27.647  24.489  0.00  0.00    -0.271 OA
ATOM      2  O   UNL d   1      19.422  27.619  23.925  0.00  0.00    -0.290 OA
ATOM      3  O   UNL d   1      15.516  27.668  24.336  0.00  0.00    -0.259 OA
ATOM      4  C   UNL d   1      18.886  27.625  26.447  0.00  0.00     0.128 A 
ATOM      5  C   UNL d   1      17.970  27.637  26.060  0.00  0.00     0.008 A 
ATOM      6  C   UNL d   1      19.538  27.617  25.697  0.00  0.00     0.106 A 
ATOM      7  C   UNL d   1      18.059  27.636  25.064  0.00  0.00     0.133 A 
ATOM      8  C   UNL d   1      17.064  27.648  26.481  0.00  0.00     0.026 A 
ATOM      9  C   UNL d   1      19.029  27.624  24.844  0.00  0.00     0.184 A 
ATOM     10  C   UNL d   1      16.245  27.659  25.906  0.00  0.00     0.056 A 
ATOM     11  C   UNL d   1      16.988  27.649  27.520  0.00  0.00     0.113 A 
ATOM     12  C   UNL d   1      16.334  27.658  24.910  0.00  0.00     0.299 A 
ATOM     13  C   UNL d   1      15.294  27.671  26.331  0.00  0.00     0.058 A 
ATOM     14  C   UNL d   1      16.046  27.661  27.966  0.00  0.00     0.133 A 
ATOM     15  C   UNL d   1      15.194  27.672  27.367  0.00  0.00     0.102 A 
ENDROOT
BRANCH   4  16
ATOM     16  C   UNL d   1      19.568  27.616  27.178  0.00  0.00     0.148 C 
ATOM     17  O   UNL d   1      19.899  26.745  27.543  0.00  0.00    -0.649 OA
BRANCH  16  18
ATOM     18  O   UNL d   1      19.921  28.477  27.544  0.00  0.00    -0.776 OA
ATOM     19  H   UNL d   1      20.532  28.573  27.577  0.00  0.00     0.167 HD
ENDBRANCH  16  18
ENDBRANCH   4  16
BRANCH  11  20
ATOM     20  O   UNL d   1      17.812  27.638  28.085  0.00  0.00    -0.357 OA
ATOM     21  H   UNL d   1      17.800  27.374  28.646  0.00  0.00     0.217 HD
ENDBRANCH  11  20
BRANCH  14  22
ATOM     22  O   UNL d   1      15.961  27.661  28.962  0.00  0.00    -0.356 OA
ATOM     23  H   UNL d   1      16.449  27.808  29.314  0.00  0.00     0.218 HD
ENDBRANCH  14  22
BRANCH  15  24
ATOM     24  O   UNL d   1      14.286  27.683  27.785  0.00  0.00    -0.358 OA
ATOM     25  H   UNL d   1      14.227  27.611  28.398  0.00  0.00     0.217 HD
ENDBRANCH  15  24
TORSDOF 5
ENDMDL
MODEL 4
REMARK VINA RESULT:     0.000     42.948     45.294
REMARK INTER + INTRA:           2.211
REMARK INTER:                   0.000
REMARK INTRA:                   2.211
REMARK UNBOUND:                 2.211
REMARK  5 active torsions:
REMARK  status: ('A' for Active; 'I' for Inactive)
REMARK    1  A    between atoms: O_3  and  C_16 
REMARK    2  A    between atoms: O_4  and  C_17 
REMARK    3  A    between atoms: O_7  and  C_20 
REMARK    4  A    between atoms: O_8  and  C_21 
REMARK    5  A    between atoms: C_9  and  C_16 
ROOT
ATOM      1  O   UNL d   1       5.444  26.521  10.888  0.00  0.00    -0.271 OA
ATOM      2  O   UNL d   1       7.227  25.169  10.628  0.00  0.00    -0.290 OA
ATOM      3  O   UNL d   1       4.281  27.562  11.640  0.00  0.00    -0.259 OA
ATOM      4  C   UNL d   1       5.805  25.617   8.523  0.00  0.00     0.128 A 
ATOM      5  C   UNL d   1       5.314  26.155   9.201  0.00  0.00     0.008 A 
ATOM      6  C   UNL d   1       6.578  25.184   8.974  0.00  0.00     0.106 A 
ATOM      7  C   UNL d   1       5.788  26.053  10.076  0.00  0.00     0.133 A 
ATOM      8  C   UNL d   1       4.497  26.726   9.139  0.00  0.00     0.026 A 
ATOM      9  C   UNL d   1       6.568  25.452   9.931  0.00  0.00     0.184 A 
ATOM     10  C   UNL d   1       4.151  27.196   9.953  0.00  0.00     0.056 A 
ATOM     11  C   UNL d   1       4.014  26.823   8.221  0.00  0.00     0.113 A 
ATOM     12  C   UNL d   1       4.625  27.093  10.827  0.00  0.00     0.299 A 
ATOM     13  C   UNL d   1       3.300  27.794   9.904  0.00  0.00     0.058 A 
ATOM     14  C   UNL d   1       3.160  27.417   8.150  0.00  0.00     0.133 A 
ATOM     15  C   UNL d   1       2.802  27.905   8.997  0.00  0.00     0.102 A 
ENDROOT
BRANCH   4  16
ATOM     16  C   UNL d   1       5.989  25.238   7.617  0.00  0.00     0.148 C 
ATOM     17  O   UNL d   1       6.575  25.736   6.976  0.00  0.00    -0.649 OA
BRANCH  16  18
ATOM     18  O   UNL d   1       5.587  24.363   7.350  0.00  0.00    -0.776 OA
ATOM     19  H   UNL d   1       5.117  24.124   7.676  0.00  0.00     0.167 HD
ENDBRANCH  16  18
ENDBRANCH   4  16
BRANCH  11  20
ATOM     20  O   UNL d   1       4.367  26.350   7.415  0.00  0.00    -0.357 OA
ATOM     21  H   UNL d   1       4.646  26.671   6.965  0.00  0.00     0.217 HD
ENDBRANCH  11  20
BRANCH  14  22
ATOM     22  O   UNL d   1       2.689  27.517   7.274  0.00  0.00    -0.356 OA
ATOM     23  H   UNL d   1       2.912  27.237   6.768  0.00  0.00     0.218 HD
ENDBRANCH  14  22
BRANCH  15  24
ATOM     24  O   UNL d   1       1.984  28.477   8.939  0.00  0.00    -0.358 OA
ATOM     25  H   UNL d   1       1.503  28.370   9.315  0.00  0.00     0.217 HD
ENDBRANCH  15  24
TORSDOF 5
ENDMDL
MODEL 5
REMARK VINA RESULT:     0.000     79.947     81.787
REMARK INTER + INTRA:           2.211
REMARK INTER:                   0.000
REMARK INTRA:                   2.211
REMARK UNBOUND:                 2.211
REMARK  5 active torsions:
REMARK  status: ('A' for Active; 'I' for Inactive)
REMARK    1  A    between atoms: O_3  and  C_16 
REMARK    2  A    between atoms: O_4  and  C_17 
REMARK    3  A    between atoms: O_7  and  C_20 
REMARK    4  A    between atoms: O_8  and  C_21 
REMARK    5  A    between atoms: C_9  and  C_16 
ROOT
ATOM      1  O   UNL d   1      13.260 -22.058  30.963  0.00  0.00    -0.271 OA
ATOM      2  O   UNL d   1      15.314 -21.974  31.883  0.00  0.00    -0.290 OA
ATOM      3  O   UNL d   1      11.747 -22.690  30.401  0.00  0.00    -0.259 OA
ATOM      4  C   UNL d   1      14.357 -19.748  31.001  0.00  0.00     0.128 A 
ATOM      5  C   UNL d   1      13.613 -20.372  30.786  0.00  0.00     0.008 A 
ATOM      6  C   UNL d   1      15.082 -20.271  31.436  0.00  0.00     0.106 A 
ATOM      7  C   UNL d   1      13.881 -21.286  31.092  0.00  0.00     0.133 A 
ATOM      8  C   UNL d   1      12.724 -20.230  30.353  0.00  0.00     0.026 A 
ATOM      9  C   UNL d   1      14.789 -21.219  31.492  0.00  0.00     0.184 A 
ATOM     10  C   UNL d   1      12.101 -21.003  30.224  0.00  0.00     0.056 A 
ATOM     11  C   UNL d   1      12.458 -19.273  30.039  0.00  0.00     0.113 A 
ATOM     12  C   UNL d   1      12.369 -21.917  30.529  0.00  0.00     0.299 A 
ATOM     13  C   UNL d   1      11.171 -20.872  29.773  0.00  0.00     0.058 A 
ATOM     14  C   UNL d   1      11.532 -19.119  29.587  0.00  0.00     0.133 A 
ATOM     15  C   UNL d   1      10.885 -19.924  29.453  0.00  0.00     0.102 A 
ENDROOT
BRANCH   4  16
ATOM     16  C   UNL d   1      14.828 -18.867  31.038  0.00  0.00     0.148 C 
ATOM     17  O   UNL d   1      15.417 -18.582  30.282  0.00  0.00    -0.649 OA
BRANCH  16  18
ATOM     18  O   UNL d   1      14.710 -18.271  31.831  0.00  0.00    -0.776 OA
ATOM     19  H   UNL d   1      14.463 -18.495  32.355  0.00  0.00     0.167 HD
ENDBRANCH  16  18
ENDBRANCH   4  16
BRANCH  11  20
ATOM     20  O   UNL d   1      13.087 -18.508  30.173  0.00  0.00    -0.357 OA
ATOM     21  H   UNL d   1      13.170 -18.271  30.740  0.00  0.00     0.217 HD
ENDBRANCH  11  20
BRANCH  14  22
ATOM     22  O   UNL d   1      11.268 -18.204  29.282  0.00  0.00    -0.356 OA
ATOM     23  H   UNL d   1      10.939 -18.133  28.762  0.00  0.00     0.218 HD
ENDBRANCH  14  22
BRANCH  15  24
ATOM     24  O   UNL d   1       9.995 -19.786  29.019  0.00  0.00    -0.358 OA
ATOM     25  H   UNL d   1       9.546 -20.208  29.092  0.00  0.00     0.217 HD
ENDBRANCH  15  24
TORSDOF 5
ENDMDL
