MODEL 1
REMARK VINA RESULT:    -8.178      0.000      0.000
REMARK INTER + INTRA:          -7.939
REMARK INTER:                  -9.761
REMARK INTRA:                   1.822
REMARK UNBOUND:                 1.912
REMARK  5 active torsions:
REMARK  status: ('A' for Active; 'I' for Inactive)
REMARK    1  A    between atoms: O_2  and  C_13 
REMARK    2  A    between atoms: O_3  and  C_19 
REMARK    3  A    between atoms: O_5  and  C_17 
REMARK    4  A    between atoms: O_6  and  C_21 
REMARK    5  A    between atoms: C_8  and  C_10 
ROOT
ATOM      1  O   UNL d   1      36.655 -34.789 -15.142  0.00  0.00    -0.309 OA
ATOM      2  O   UNL d   1      33.820 -35.437 -15.879  0.00  0.00    -0.287 OA
ATOM      3  C   UNL d   1      35.388 -35.951 -15.352  0.00  0.00     0.081 A 
ATOM      4  C   UNL d   1      36.032 -34.059 -15.422  0.00  0.00     0.090 A 
ATOM      5  C   UNL d   1      36.333 -35.735 -15.107  0.00  0.00     0.095 A 
ATOM      6  C   UNL d   1      34.765 -35.221 -15.633  0.00  0.00     0.190 A 
ATOM      7  C   UNL d   1      35.087 -34.275 -15.668  0.00  0.00     0.094 A 
ATOM      8  C   UNL d   1      35.039 -36.932 -15.321  0.00  0.00     0.085 A 
ATOM      9  C   UNL d   1      36.994 -36.485 -14.812  0.00  0.00     0.075 A 
ATOM     10  C   UNL d   1      36.666 -37.473 -14.774  0.00  0.00     0.071 A 
ATOM     11  C   UNL d   1      35.683 -37.698 -15.029  0.00  0.00     0.074 A 
ENDROOT
BRANCH   4  12
ATOM     12  C   UNL d   1      36.354 -33.113 -15.457  0.00  0.00     0.001 A 
ATOM     13  C   UNL d   1      36.187 -32.499 -14.686  0.00  0.00     0.054 A 
ATOM     14  C   UNL d   1      36.509 -31.553 -14.721  0.00  0.00     0.102 A 
ATOM     15  C   UNL d   1      36.998 -31.221 -15.527  0.00  0.00     0.099 A 
ATOM     16  C   UNL d   1      37.165 -31.835 -16.299  0.00  0.00     0.040 A 
ATOM     17  C   UNL d   1      36.843 -32.781 -16.264  0.00  0.00     0.017 A 
BRANCH  14  18
ATOM     18  O   UNL d   1      36.342 -30.939 -13.949  0.00  0.00    -0.353 OA
ATOM     19  C   UNL d   1      35.826 -31.262 -13.156  0.00  0.00     0.210 C 
ENDBRANCH  14  18
BRANCH  15  20
ATOM     20  O   UNL d   1      37.320 -30.275 -15.562  0.00  0.00    -0.358 OA
ATOM     21  H   UNL d   1      37.477 -30.020 -16.106  0.00  0.00     0.217 HD
ENDBRANCH  15  20
ENDBRANCH   4  12
BRANCH   8  22
ATOM     22  O   UNL d   1      34.092 -37.136 -15.568  0.00  0.00    -0.360 OA
ATOM     23  H   UNL d   1      33.686 -36.675 -15.648  0.00  0.00     0.217 HD
ENDBRANCH   8  22
BRANCH  10  24
ATOM     24  O   UNL d   1      37.293 -38.200 -14.492  0.00  0.00    -0.361 OA
ATOM     25  H   UNL d   1      37.802 -38.061 -14.168  0.00  0.00     0.217 HD
ENDBRANCH  10  24
TORSDOF 5
ENDMDL
MODEL 2
REMARK VINA RESULT:    -8.175      1.069      5.145
REMARK INTER + INTRA:          -7.935
REMARK INTER:                  -9.794
REMARK INTRA:                   1.859
REMARK UNBOUND:                 1.912
REMARK  5 active torsions:
REMARK  status: ('A' for Active; 'I' for Inactive)
REMARK    1  A    between atoms: O_2  and  C_13 
REMARK    2  A    between atoms: O_3  and  C_19 
REMARK    3  A    between atoms: O_5  and  C_17 
REMARK    4  A    between atoms: O_6  and  C_21 
REMARK    5  A    between atoms: C_8  and  C_10 
ROOT
ATOM      1  O   UNL d   1      36.350 -34.120 -14.238  0.00  0.00    -0.309 OA
ATOM      2  O   UNL d   1      36.457 -32.861 -16.959  0.00  0.00    -0.287 OA
ATOM      3  C   UNL d   1      36.330 -32.706 -15.238  0.00  0.00     0.081 A 
ATOM      4  C   UNL d   1      36.442 -34.694 -15.052  0.00  0.00     0.090 A 
ATOM      5  C   UNL d   1      36.295 -33.126 -14.331  0.00  0.00     0.095 A 
ATOM      6  C   UNL d   1      36.421 -33.280 -16.052  0.00  0.00     0.190 A 
ATOM      7  C   UNL d   1      36.477 -34.275 -15.959  0.00  0.00     0.094 A 
ATOM      8  C   UNL d   1      36.273 -31.673 -15.351  0.00  0.00     0.085 A 
ATOM      9  C   UNL d   1      36.200 -32.541 -13.474  0.00  0.00     0.075 A 
ATOM     10  C   UNL d   1      36.141 -31.505 -13.564  0.00  0.00     0.071 A 
ATOM     11  C   UNL d   1      36.178 -31.068 -14.508  0.00  0.00     0.074 A 
ENDROOT
BRANCH   4  12
ATOM     12  C   UNL d   1      36.497 -35.688 -14.958  0.00  0.00     0.001 A 
ATOM     13  C   UNL d   1      35.721 -36.260 -15.224  0.00  0.00     0.054 A 
ATOM     14  C   UNL d   1      35.777 -37.254 -15.131  0.00  0.00     0.102 A 
ATOM     15  C   UNL d   1      36.609 -37.677 -14.772  0.00  0.00     0.099 A 
ATOM     16  C   UNL d   1      37.385 -37.105 -14.506  0.00  0.00     0.040 A 
ATOM     17  C   UNL d   1      37.329 -36.111 -14.599  0.00  0.00     0.017 A 
BRANCH  14  18
ATOM     18  O   UNL d   1      35.000 -37.825 -15.396  0.00  0.00    -0.353 OA
ATOM     19  C   UNL d   1      34.091 -37.420 -15.493  0.00  0.00     0.210 C 
ENDBRANCH  14  18
BRANCH  15  20
ATOM     20  O   UNL d   1      36.664 -38.671 -14.678  0.00  0.00    -0.358 OA
ATOM     21  H   UNL d   1      37.150 -38.928 -14.392  0.00  0.00     0.217 HD
ENDBRANCH  15  20
ENDBRANCH   4  12
BRANCH   8  22
ATOM     22  O   UNL d   1      36.310 -31.264 -16.263  0.00  0.00    -0.360 OA
ATOM     23  H   UNL d   1      35.801 -31.009 -16.508  0.00  0.00     0.217 HD
ENDBRANCH   8  22
BRANCH  10  24
ATOM     24  O   UNL d   1      36.050 -30.934 -12.747  0.00  0.00    -0.361 OA
ATOM     25  H   UNL d   1      36.364 -31.078 -12.233  0.00  0.00     0.217 HD
ENDBRANCH  10  24
TORSDOF 5
ENDMDL
MODEL 3
REMARK VINA RESULT:    -8.125      1.473      2.576
REMARK INTER + INTRA:          -7.875
REMARK INTER:                  -9.922
REMARK INTRA:                   2.047
REMARK UNBOUND:                 1.912
REMARK  5 active torsions:
REMARK  status: ('A' for Active; 'I' for Inactive)
REMARK    1  A    between atoms: O_2  and  C_13 
REMARK    2  A    between atoms: O_3  and  C_19 
REMARK    3  A    between atoms: O_5  and  C_17 
REMARK    4  A    between atoms: O_6  and  C_21 
REMARK    5  A    between atoms: C_8  and  C_10 
ROOT
ATOM      1  O   UNL d   1      36.408 -35.357 -15.027  0.00  0.00    -0.309 OA
ATOM      2  O   UNL d   1      37.502 -35.684 -12.253  0.00  0.00    -0.287 OA
ATOM      3  C   UNL d   1      36.981 -36.379 -13.752  0.00  0.00     0.081 A 
ATOM      4  C   UNL d   1      36.565 -34.553 -14.453  0.00  0.00     0.090 A 
ATOM      5  C   UNL d   1      36.616 -36.270 -14.677  0.00  0.00     0.095 A 
ATOM      6  C   UNL d   1      37.137 -35.575 -13.178  0.00  0.00     0.190 A 
ATOM      7  C   UNL d   1      36.929 -34.662 -13.529  0.00  0.00     0.094 A 
ATOM      8  C   UNL d   1      37.202 -37.323 -13.373  0.00  0.00     0.085 A 
ATOM      9  C   UNL d   1      36.448 -37.097 -15.287  0.00  0.00     0.075 A 
ATOM     10  C   UNL d   1      36.663 -38.051 -14.928  0.00  0.00     0.071 A 
ATOM     11  C   UNL d   1      37.042 -38.165 -13.965  0.00  0.00     0.074 A 
ENDROOT
BRANCH   4  12
ATOM     12  C   UNL d   1      36.357 -33.640 -14.804  0.00  0.00     0.001 A 
ATOM     13  C   UNL d   1      36.747 -33.337 -15.674  0.00  0.00     0.054 A 
ATOM     14  C   UNL d   1      36.539 -32.424 -16.024  0.00  0.00     0.102 A 
ATOM     15  C   UNL d   1      35.940 -31.814 -15.506  0.00  0.00     0.099 A 
ATOM     16  C   UNL d   1      35.550 -32.116 -14.636  0.00  0.00     0.040 A 
ATOM     17  C   UNL d   1      35.758 -33.029 -14.285  0.00  0.00     0.017 A 
BRANCH  14  18
ATOM     18  O   UNL d   1      36.929 -32.122 -16.894  0.00  0.00    -0.353 OA
ATOM     19  C   UNL d   1      36.960 -32.748 -17.673  0.00  0.00     0.210 C 
ENDBRANCH  14  18
BRANCH  15  20
ATOM     20  O   UNL d   1      35.732 -30.901 -15.856  0.00  0.00    -0.358 OA
ATOM     21  H   UNL d   1      35.832 -30.402 -15.501  0.00  0.00     0.217 HD
ENDBRANCH  15  20
ENDBRANCH   4  12
BRANCH   8  22
ATOM     22  O   UNL d   1      37.566 -37.421 -12.447  0.00  0.00    -0.360 OA
ATOM     23  H   UNL d   1      37.237 -37.719 -12.015  0.00  0.00     0.217 HD
ENDBRANCH   8  22
BRANCH  10  24
ATOM     24  O   UNL d   1      36.505 -38.853 -15.506  0.00  0.00    -0.361 OA
ATOM     25  H   UNL d   1      36.063 -38.839 -15.940  0.00  0.00     0.217 HD
ENDBRANCH  10  24
TORSDOF 5
ENDMDL
MODEL 4
REMARK VINA RESULT:    -7.855      1.547      2.120
REMARK INTER + INTRA:          -7.550
REMARK INTER:                  -9.664
REMARK INTRA:                   2.114
REMARK UNBOUND:                 1.912
REMARK  5 active torsions:
REMARK  status: ('A' for Active; 'I' for Inactive)
REMARK    1  A    between atoms: O_2  and  C_13 
REMARK    2  A    between atoms: O_3  and  C_19 
REMARK    3  A    between atoms: O_5  and  C_17 
REMARK    4  A    between atoms: O_6  and  C_21 
REMARK    5  A    between atoms: C_8  and  C_10 
ROOT
ATOM      1  O   UNL d   1      37.025 -34.786 -13.705  0.00  0.00    -0.309 OA
ATOM      2  O   UNL d   1      36.405 -37.170 -15.417  0.00  0.00    -0.287 OA
ATOM      3  C   UNL d   1      37.023 -36.502 -13.944  0.00  0.00     0.081 A 
ATOM      4  C   UNL d   1      36.613 -34.660 -14.607  0.00  0.00     0.090 A 
ATOM      5  C   UNL d   1      37.230 -35.707 -13.373  0.00  0.00     0.095 A 
ATOM      6  C   UNL d   1      36.611 -36.376 -14.846  0.00  0.00     0.190 A 
ATOM      7  C   UNL d   1      36.406 -35.455 -15.178  0.00  0.00     0.094 A 
ATOM      8  C   UNL d   1      37.232 -37.467 -13.612  0.00  0.00     0.085 A 
ATOM      9  C   UNL d   1      37.659 -35.822 -12.431  0.00  0.00     0.075 A 
ATOM     10  C   UNL d   1      37.876 -36.779 -12.079  0.00  0.00     0.071 A 
ATOM     11  C   UNL d   1      37.661 -37.606 -12.673  0.00  0.00     0.074 A 
ENDROOT
BRANCH   4  12
ATOM     12  C   UNL d   1      36.407 -33.739 -14.939  0.00  0.00     0.001 A 
ATOM     13  C   UNL d   1      36.124 -33.028 -14.296  0.00  0.00     0.054 A 
ATOM     14  C   UNL d   1      35.918 -32.107 -14.627  0.00  0.00     0.102 A 
ATOM     15  C   UNL d   1      35.997 -31.898 -15.602  0.00  0.00     0.099 A 
ATOM     16  C   UNL d   1      36.281 -32.609 -16.245  0.00  0.00     0.040 A 
ATOM     17  C   UNL d   1      36.486 -33.530 -15.913  0.00  0.00     0.017 A 
BRANCH  14  18
ATOM     18  O   UNL d   1      35.635 -31.396 -13.984  0.00  0.00    -0.353 OA
ATOM     19  C   UNL d   1      35.710 -31.553 -13.000  0.00  0.00     0.210 C 
ENDBRANCH  14  18
BRANCH  15  20
ATOM     20  O   UNL d   1      35.792 -30.977 -15.934  0.00  0.00    -0.358 OA
ATOM     21  H   UNL d   1      35.805 -30.496 -15.542  0.00  0.00     0.217 HD
ENDBRANCH  15  20
ENDBRANCH   4  12
BRANCH   8  22
ATOM     22  O   UNL d   1      37.021 -38.254 -14.191  0.00  0.00    -0.360 OA
ATOM     23  H   UNL d   1      36.869 -38.169 -14.786  0.00  0.00     0.217 HD
ENDBRANCH   8  22
BRANCH  10  24
ATOM     24  O   UNL d   1      38.288 -36.900 -11.175  0.00  0.00    -0.361 OA
ATOM     25  H   UNL d   1      38.081 -36.569 -10.694  0.00  0.00     0.217 HD
ENDBRANCH  10  24
TORSDOF 5
ENDMDL
MODEL 5
REMARK VINA RESULT:    -7.744      3.823      5.396
REMARK INTER + INTRA:          -7.416
REMARK INTER:                  -9.688
REMARK INTRA:                   2.272
REMARK UNBOUND:                 1.912
REMARK  5 active torsions:
REMARK  status: ('A' for Active; 'I' for Inactive)
REMARK    1  A    between atoms: O_2  and  C_13 
REMARK    2  A    between atoms: O_3  and  C_19 
REMARK    3  A    between atoms: O_5  and  C_17 
REMARK    4  A    between atoms: O_6  and  C_21 
REMARK    5  A    between atoms: C_8  and  C_10 
ROOT
ATOM      1  O   UNL d   1      37.783 -35.221 -11.683  0.00  0.00    -0.309 OA
ATOM      2  O   UNL d   1      39.244 -37.773 -11.088  0.00  0.00    -0.287 OA
ATOM      3  C   UNL d   1      38.695 -36.207 -10.589  0.00  0.00     0.081 A 
ATOM      4  C   UNL d   1      37.845 -35.935 -12.379  0.00  0.00     0.090 A 
ATOM      5  C   UNL d   1      38.208 -35.357 -10.788  0.00  0.00     0.095 A 
ATOM      6  C   UNL d   1      38.757 -36.922 -11.286  0.00  0.00     0.190 A 
ATOM      7  C   UNL d   1      38.332 -36.786 -12.181  0.00  0.00     0.094 A 
ATOM      8  C   UNL d   1      39.142 -36.363  -9.662  0.00  0.00     0.085 A 
ATOM      9  C   UNL d   1      38.135 -34.603 -10.072  0.00  0.00     0.075 A 
ATOM     10  C   UNL d   1      38.575 -34.738  -9.138  0.00  0.00     0.071 A 
ATOM     11  C   UNL d   1      39.082 -35.623  -8.931  0.00  0.00     0.074 A 
ENDROOT
BRANCH   4  12
ATOM     12  C   UNL d   1      37.420 -35.799 -13.274  0.00  0.00     0.001 A 
ATOM     13  C   UNL d   1      36.967 -34.933 -13.486  0.00  0.00     0.054 A 
ATOM     14  C   UNL d   1      36.543 -34.797 -14.381  0.00  0.00     0.102 A 
ATOM     15  C   UNL d   1      36.570 -35.527 -15.064  0.00  0.00     0.099 A 
ATOM     16  C   UNL d   1      37.023 -36.393 -14.852  0.00  0.00     0.040 A 
ATOM     17  C   UNL d   1      37.448 -36.529 -13.957  0.00  0.00     0.017 A 
BRANCH  14  18
ATOM     18  O   UNL d   1      36.090 -33.931 -14.593  0.00  0.00    -0.353 OA
ATOM     19  C   UNL d   1      36.299 -33.113 -14.058  0.00  0.00     0.210 C 
ENDBRANCH  14  18
BRANCH  15  20
ATOM     20  O   UNL d   1      36.145 -35.391 -15.959  0.00  0.00    -0.358 OA
ATOM     21  H   UNL d   1      36.479 -35.469 -16.476  0.00  0.00     0.217 HD
ENDBRANCH  15  20
ENDBRANCH   4  12
BRANCH   8  22
ATOM     22  O   UNL d   1      39.627 -37.218  -9.475  0.00  0.00    -0.360 OA
ATOM     23  H   UNL d   1      39.530 -37.518  -8.941  0.00  0.00     0.217 HD
ENDBRANCH   8  22
BRANCH  10  24
ATOM     24  O   UNL d   1      38.510 -34.020  -8.443  0.00  0.00    -0.361 OA
ATOM     25  H   UNL d   1      37.962 -33.761  -8.317  0.00  0.00     0.217 HD
ENDBRANCH  10  24
TORSDOF 5
ENDMDL
