MODEL 1
REMARK VINA RESULT:    -8.024      0.000      0.000
REMARK INTER + INTRA:          -7.775
REMARK INTER:                  -8.779
REMARK INTRA:                   1.004
REMARK UNBOUND:                 1.187
REMARK  3 active torsions:
REMARK  status: ('A' for Active; 'I' for Inactive)
REMARK    1  A    between atoms: O_2  and  C_10 
REMARK    2  A    between atoms: O_4  and  C_13 
REMARK    3  A    between atoms: C_7  and  C_9 
ROOT
ATOM      1  O   UNL d   1       3.860  36.621   6.498  0.00  0.00    -0.309 OA
ATOM      2  O   UNL d   1       1.717  38.714   6.662  0.00  0.00    -0.287 OA
ATOM      3  C   UNL d   1       3.364  38.231   6.898  0.00  0.00     0.081 A 
ATOM      4  C   UNL d   1       4.078  37.534   6.843  0.00  0.00     0.095 A 
ATOM      5  C   UNL d   1       2.928  36.406   6.207  0.00  0.00     0.090 A 
ATOM      6  C   UNL d   1       2.432  38.016   6.607  0.00  0.00     0.190 A 
ATOM      7  C   UNL d   1       3.576  39.186   7.255  0.00  0.00     0.085 A 
ATOM      8  C   UNL d   1       2.214  37.103   6.262  0.00  0.00     0.094 A 
ATOM      9  C   UNL d   1       5.054  37.743   7.142  0.00  0.00     0.075 A 
ATOM     10  C   UNL d   1       5.289  38.692   7.503  0.00  0.00     0.071 A 
ATOM     11  C   UNL d   1       4.545  39.418   7.560  0.00  0.00     0.074 A 
ENDROOT
BRANCH   5  12
ATOM     12  C   UNL d   1       2.710  35.493   5.862  0.00  0.00    -0.002 A 
ATOM     13  C   UNL d   1       2.701  35.320   4.877  0.00  0.00     0.014 A 
ATOM     14  C   UNL d   1       2.483  34.407   4.532  0.00  0.00     0.001 A 
ATOM     15  C   UNL d   1       2.274  33.667   5.172  0.00  0.00     0.000 A 
ATOM     16  C   UNL d   1       2.284  33.840   6.157  0.00  0.00     0.001 A 
ATOM     17  C   UNL d   1       2.502  34.753   6.502  0.00  0.00     0.014 A 
ENDBRANCH   5  12
BRANCH   7  18
ATOM     18  O   UNL d   1       2.854  39.876   7.305  0.00  0.00    -0.360 OA
ATOM     19  H   UNL d   1       3.001  40.475   7.360  0.00  0.00     0.217 HD
ENDBRANCH   7  18
BRANCH  10  20
ATOM     20  O   UNL d   1       6.222  38.903   7.793  0.00  0.00    -0.361 OA
ATOM     21  H   UNL d   1       6.502  38.549   8.218  0.00  0.00     0.217 HD
ENDBRANCH  10  20
TORSDOF 3
ENDMDL
MODEL 2
REMARK VINA RESULT:    -7.971      3.098      4.347
REMARK INTER + INTRA:          -7.716
REMARK INTER:                  -9.107
REMARK INTRA:                   1.392
REMARK UNBOUND:                 1.187
REMARK  3 active torsions:
REMARK  status: ('A' for Active; 'I' for Inactive)
REMARK    1  A    between atoms: O_2  and  C_10 
REMARK    2  A    between atoms: O_4  and  C_13 
REMARK    3  A    between atoms: C_7  and  C_9 
ROOT
ATOM      1  O   UNL d   1       2.041  40.433   7.636  0.00  0.00    -0.309 OA
ATOM      2  O   UNL d   1      -0.675  40.944   8.804  0.00  0.00    -0.287 OA
ATOM      3  C   UNL d   1       0.945  41.470   8.487  0.00  0.00     0.081 A 
ATOM      4  C   UNL d   1       1.850  41.300   8.097  0.00  0.00     0.095 A 
ATOM      5  C   UNL d   1       1.327  39.737   7.565  0.00  0.00     0.090 A 
ATOM      6  C   UNL d   1       0.231  40.774   8.415  0.00  0.00     0.190 A 
ATOM      7  C   UNL d   1       0.731  42.368   8.969  0.00  0.00     0.085 A 
ATOM      8  C   UNL d   1       0.422  39.907   7.954  0.00  0.00     0.094 A 
ATOM      9  C   UNL d   1       2.604  42.015   8.164  0.00  0.00     0.075 A 
ATOM     10  C   UNL d   1       2.412  42.920   8.642  0.00  0.00     0.071 A 
ATOM     11  C   UNL d   1       1.470  43.098   9.048  0.00  0.00     0.074 A 
ENDROOT
BRANCH   5  12
ATOM     12  C   UNL d   1       1.518  38.870   7.104  0.00  0.00    -0.002 A 
ATOM     13  C   UNL d   1       2.464  38.582   6.952  0.00  0.00     0.014 A 
ATOM     14  C   UNL d   1       2.655  37.716   6.491  0.00  0.00     0.001 A 
ATOM     15  C   UNL d   1       1.900  37.137   6.182  0.00  0.00     0.000 A 
ATOM     16  C   UNL d   1       0.954  37.425   6.334  0.00  0.00     0.001 A 
ATOM     17  C   UNL d   1       0.763  38.291   6.795  0.00  0.00     0.014 A 
ENDBRANCH   5  12
BRANCH   7  18
ATOM     18  O   UNL d   1      -0.178  42.527   9.355  0.00  0.00    -0.360 OA
ATOM     19  H   UNL d   1      -0.423  43.096   9.343  0.00  0.00     0.217 HD
ENDBRANCH   7  18
BRANCH  10  20
ATOM     20  O   UNL d   1       3.130  43.614   8.712  0.00  0.00    -0.361 OA
ATOM     21  H   UNL d   1       3.496  43.632   9.212  0.00  0.00     0.217 HD
ENDBRANCH  10  20
TORSDOF 3
ENDMDL
MODEL 3
REMARK VINA RESULT:    -7.888      4.467      6.219
REMARK INTER + INTRA:          -7.623
REMARK INTER:                  -8.995
REMARK INTRA:                   1.371
REMARK UNBOUND:                 1.187
REMARK  3 active torsions:
REMARK  status: ('A' for Active; 'I' for Inactive)
REMARK    1  A    between atoms: O_2  and  C_10 
REMARK    2  A    between atoms: O_4  and  C_13 
REMARK    3  A    between atoms: C_7  and  C_9 
ROOT
ATOM      1  O   UNL d   1       0.846  41.132   8.214  0.00  0.00    -0.309 OA
ATOM      2  O   UNL d   1       1.702  44.005   8.321  0.00  0.00    -0.287 OA
ATOM      3  C   UNL d   1       2.092  42.330   8.110  0.00  0.00     0.081 A 
ATOM      4  C   UNL d   1       1.806  41.373   8.075  0.00  0.00     0.095 A 
ATOM      5  C   UNL d   1       0.171  41.849   8.389  0.00  0.00     0.090 A 
ATOM      6  C   UNL d   1       1.417  43.047   8.286  0.00  0.00     0.190 A 
ATOM      7  C   UNL d   1       3.088  42.596   7.967  0.00  0.00     0.085 A 
ATOM      8  C   UNL d   1       0.456  42.806   8.425  0.00  0.00     0.094 A 
ATOM      9  C   UNL d   1       2.497  40.615   7.893  0.00  0.00     0.075 A 
ATOM     10  C   UNL d   1       3.500  40.858   7.747  0.00  0.00     0.071 A 
ATOM     11  C   UNL d   1       3.797  41.855   7.784  0.00  0.00     0.074 A 
ENDROOT
BRANCH   5  12
ATOM     12  C   UNL d   1      -0.790  41.608   8.529  0.00  0.00    -0.002 A 
ATOM     13  C   UNL d   1      -1.036  40.685   8.825  0.00  0.00     0.014 A 
ATOM     14  C   UNL d   1      -1.996  40.444   8.965  0.00  0.00     0.001 A 
ATOM     15  C   UNL d   1      -2.711  41.126   8.808  0.00  0.00     0.000 A 
ATOM     16  C   UNL d   1      -2.465  42.049   8.511  0.00  0.00     0.001 A 
ATOM     17  C   UNL d   1      -1.504  42.290   8.372  0.00  0.00     0.014 A 
ENDBRANCH   5  12
BRANCH   7  18
ATOM     18  O   UNL d   1       3.362  43.557   8.005  0.00  0.00    -0.360 OA
ATOM     19  H   UNL d   1       3.715  43.797   7.555  0.00  0.00     0.217 HD
ENDBRANCH   7  18
BRANCH  10  20
ATOM     20  O   UNL d   1       4.172  40.138   7.572  0.00  0.00    -0.361 OA
ATOM     21  H   UNL d   1       4.181  39.631   7.928  0.00  0.00     0.217 HD
ENDBRANCH  10  20
TORSDOF 3
ENDMDL
MODEL 4
REMARK VINA RESULT:    -7.682      5.417      7.552
REMARK INTER + INTRA:          -7.393
REMARK INTER:                  -8.412
REMARK INTRA:                   1.019
REMARK UNBOUND:                 1.187
REMARK  3 active torsions:
REMARK  status: ('A' for Active; 'I' for Inactive)
REMARK    1  A    between atoms: O_2  and  C_10 
REMARK    2  A    between atoms: O_4  and  C_13 
REMARK    3  A    between atoms: C_7  and  C_9 
ROOT
ATOM      1  O   UNL d   1       0.322  43.341   8.638  0.00  0.00    -0.309 OA
ATOM      2  O   UNL d   1       0.459  40.369   8.259  0.00  0.00    -0.287 OA
ATOM      3  C   UNL d   1       1.242  41.913   8.299  0.00  0.00     0.081 A 
ATOM      4  C   UNL d   1       1.196  42.904   8.425  0.00  0.00     0.095 A 
ATOM      5  C   UNL d   1      -0.506  42.787   8.724  0.00  0.00     0.090 A 
ATOM      6  C   UNL d   1       0.414  41.359   8.385  0.00  0.00     0.190 A 
ATOM      7  C   UNL d   1       2.145  41.444   8.077  0.00  0.00     0.085 A 
ATOM      8  C   UNL d   1      -0.460  41.797   8.598  0.00  0.00     0.094 A 
ATOM      9  C   UNL d   1       2.050  43.495   8.338  0.00  0.00     0.075 A 
ATOM     10  C   UNL d   1       2.964  43.046   8.117  0.00  0.00     0.071 A 
ATOM     11  C   UNL d   1       3.011  42.015   7.986  0.00  0.00     0.074 A 
ENDROOT
BRANCH   5  12
ATOM     12  C   UNL d   1      -1.380  43.224   8.937  0.00  0.00    -0.002 A 
ATOM     13  C   UNL d   1      -1.630  43.407   9.888  0.00  0.00     0.014 A 
ATOM     14  C   UNL d   1      -2.504  43.844  10.100  0.00  0.00     0.001 A 
ATOM     15  C   UNL d   1      -3.128  44.099   9.362  0.00  0.00     0.000 A 
ATOM     16  C   UNL d   1      -2.878  43.916   8.411  0.00  0.00     0.001 A 
ATOM     17  C   UNL d   1      -2.005  43.479   8.198  0.00  0.00     0.014 A 
ENDBRANCH   5  12
BRANCH   7  18
ATOM     18  O   UNL d   1       2.179  40.453   7.953  0.00  0.00    -0.360 OA
ATOM     19  H   UNL d   1       2.699  40.142   8.081  0.00  0.00     0.217 HD
ENDBRANCH   7  18
BRANCH  10  20
ATOM     20  O   UNL d   1       3.790  43.604   8.032  0.00  0.00    -0.361 OA
ATOM     21  H   UNL d   1       4.161  43.535   7.540  0.00  0.00     0.217 HD
ENDBRANCH  10  20
TORSDOF 3
ENDMDL
MODEL 5
REMARK VINA RESULT:    -7.459      7.039      8.731
REMARK INTER + INTRA:          -7.144
REMARK INTER:                  -8.156
REMARK INTRA:                   1.012
REMARK UNBOUND:                 1.187
REMARK  3 active torsions:
REMARK  status: ('A' for Active; 'I' for Inactive)
REMARK    1  A    between atoms: O_2  and  C_10 
REMARK    2  A    between atoms: O_4  and  C_13 
REMARK    3  A    between atoms: C_7  and  C_9 
ROOT
ATOM      1  O   UNL d   1       6.523  29.505   9.292  0.00  0.00    -0.309 OA
ATOM      2  O   UNL d   1       6.555  32.503   9.176  0.00  0.00    -0.287 OA
ATOM      3  C   UNL d   1       6.699  30.970   8.384  0.00  0.00     0.081 A 
ATOM      4  C   UNL d   1       6.689  29.970   8.423  0.00  0.00     0.095 A 
ATOM      5  C   UNL d   1       6.368  30.040  10.123  0.00  0.00     0.090 A 
ATOM      6  C   UNL d   1       6.544  31.504   9.215  0.00  0.00     0.190 A 
ATOM      7  C   UNL d   1       6.870  31.467   7.485  0.00  0.00     0.085 A 
ATOM      8  C   UNL d   1       6.378  31.039  10.085  0.00  0.00     0.094 A 
ATOM      9  C   UNL d   1       6.848  29.400   7.566  0.00  0.00     0.075 A 
ATOM     10  C   UNL d   1       7.022  29.877   6.656  0.00  0.00     0.071 A 
ATOM     11  C   UNL d   1       7.033  30.917   6.616  0.00  0.00     0.074 A 
ENDROOT
BRANCH   5  12
ATOM     12  C   UNL d   1       6.202  29.575  10.993  0.00  0.00    -0.002 A 
ATOM     13  C   UNL d   1       6.969  29.200  11.513  0.00  0.00     0.014 A 
ATOM     14  C   UNL d   1       6.803  28.735  12.383  0.00  0.00     0.001 A 
ATOM     15  C   UNL d   1       5.871  28.645  12.732  0.00  0.00     0.000 A 
ATOM     16  C   UNL d   1       5.104  29.020  12.212  0.00  0.00     0.001 A 
ATOM     17  C   UNL d   1       5.269  29.485  11.342  0.00  0.00     0.014 A 
ENDBRANCH   5  12
BRANCH   7  18
ATOM     18  O   UNL d   1       6.879  32.467   7.458  0.00  0.00    -0.360 OA
ATOM     19  H   UNL d   1       7.344  32.780   7.722  0.00  0.00     0.217 HD
ENDBRANCH   7  18
BRANCH  10  20
ATOM     20  O   UNL d   1       7.176  29.339   5.827  0.00  0.00    -0.361 OA
ATOM     21  H   UNL d   1       7.755  29.208   5.647  0.00  0.00     0.217 HD
ENDBRANCH  10  20
TORSDOF 3
ENDMDL
