MODEL 1
REMARK VINA RESULT:    -5.389      0.000      0.000
REMARK INTER + INTRA:          -5.389
REMARK INTER:                  -5.389
REMARK INTRA:                   0.000
REMARK UNBOUND:                 0.000
REMARK  0 active torsions:
REMARK  status: ('A' for Active; 'I' for Inactive)
ROOT
ATOM      1  O   UNL d   1     -38.674  30.726  -2.481  0.00  0.00    -0.265 OA
ATOM      2  O   UNL d   1     -38.569  28.075  -0.253  0.00  0.00    -0.246 OA
ATOM      3  N   UNL d   1     -39.245  29.593   0.238  0.00  0.00    -0.286 N 
ATOM      4  N   UNL d   1     -39.608  31.862  -0.885  0.00  0.00    -0.338 N 
ATOM      5  N   UNL d   1     -38.621  29.401  -1.367  0.00  0.00    -0.269 N 
ATOM      6  N   UNL d   1     -39.914  31.254   0.574  0.00  0.00    -0.223 NA
ATOM      7  C   UNL d   1     -39.297  30.918  -0.876  0.00  0.00     0.151 A 
ATOM      8  C   UNL d   1     -39.487  30.540   0.030  0.00  0.00     0.167 A 
ATOM      9  C   UNL d   1     -38.864  30.348  -1.575  0.00  0.00     0.282 A 
ATOM     10  C   UNL d   1     -38.812  29.023  -0.461  0.00  0.00     0.332 A 
ATOM     11  C   UNL d   1     -39.989  32.070   0.010  0.00  0.00     0.212 A 
ATOM     12  C   UNL d   1     -39.435  29.215   1.144  0.00  0.00     0.163 C 
ATOM     13  C   UNL d   1     -39.549  32.493  -1.658  0.00  0.00     0.157 C 
ATOM     14  C   UNL d   1     -38.189  28.831  -2.065  0.00  0.00     0.164 C 
ENDROOT
TORSDOF 0
ENDMDL
MODEL 2
REMARK VINA RESULT:    -5.318      1.167      2.680
REMARK INTER + INTRA:          -5.318
REMARK INTER:                  -5.318
REMARK INTRA:                   0.000
REMARK UNBOUND:                 0.000
REMARK  0 active torsions:
REMARK  status: ('A' for Active; 'I' for Inactive)
ROOT
ATOM      1  O   UNL d   1     -38.766  30.732  -2.461  0.00  0.00    -0.265 OA
ATOM      2  O   UNL d   1     -39.983  31.604   0.662  0.00  0.00    -0.246 OA
ATOM      3  N   UNL d   1     -39.360  30.011   0.389  0.00  0.00    -0.286 N 
ATOM      4  N   UNL d   1     -38.351  28.778  -1.612  0.00  0.00    -0.338 N 
ATOM      5  N   UNL d   1     -39.374  31.168  -0.900  0.00  0.00    -0.269 N 
ATOM      6  N   UNL d   1     -38.670  28.391  -0.082  0.00  0.00    -0.223 NA
ATOM      7  C   UNL d   1     -38.752  29.575  -1.173  0.00  0.00     0.151 A 
ATOM      8  C   UNL d   1     -38.950  29.335  -0.223  0.00  0.00     0.167 A 
ATOM      9  C   UNL d   1     -38.964  30.492  -1.511  0.00  0.00     0.282 A 
ATOM     10  C   UNL d   1     -39.573  30.927   0.051  0.00  0.00     0.332 A 
ATOM     11  C   UNL d   1     -38.300  28.048  -0.939  0.00  0.00     0.212 A 
ATOM     12  C   UNL d   1     -39.558  29.770   1.339  0.00  0.00     0.163 C 
ATOM     13  C   UNL d   1     -38.051  28.721  -2.563  0.00  0.00     0.157 C 
ATOM     14  C   UNL d   1     -39.587  32.085  -1.238  0.00  0.00     0.164 C 
ENDROOT
TORSDOF 0
ENDMDL
MODEL 3
REMARK VINA RESULT:    -5.207     10.742     12.022
REMARK INTER + INTRA:          -5.207
REMARK INTER:                  -5.207
REMARK INTRA:                   0.000
REMARK UNBOUND:                 0.000
REMARK  0 active torsions:
REMARK  status: ('A' for Active; 'I' for Inactive)
ROOT
ATOM      1  O   UNL d   1     -34.535  38.563   6.933  0.00  0.00    -0.265 OA
ATOM      2  O   UNL d   1     -36.540  41.320   6.319  0.00  0.00    -0.246 OA
ATOM      3  N   UNL d   1     -37.228  39.731   6.316  0.00  0.00    -0.286 N 
ATOM      4  N   UNL d   1     -36.327  37.365   6.684  0.00  0.00    -0.338 N 
ATOM      5  N   UNL d   1     -35.537  39.942   6.626  0.00  0.00    -0.269 N 
ATOM      6  N   UNL d   1     -37.773  37.992   6.352  0.00  0.00    -0.223 NA
ATOM      7  C   UNL d   1     -36.225  38.352   6.623  0.00  0.00     0.151 A 
ATOM      8  C   UNL d   1     -37.123  38.741   6.417  0.00  0.00     0.167 A 
ATOM      9  C   UNL d   1     -35.432  38.952   6.728  0.00  0.00     0.282 A 
ATOM     10  C   UNL d   1     -36.435  40.331   6.420  0.00  0.00     0.332 A 
ATOM     11  C   UNL d   1     -37.282  37.143   6.517  0.00  0.00     0.212 A 
ATOM     12  C   UNL d   1     -38.126  40.120   6.110  0.00  0.00     0.163 C 
ATOM     13  C   UNL d   1     -35.598  36.710   6.879  0.00  0.00     0.157 C 
ATOM     14  C   UNL d   1     -34.744  40.542   6.731  0.00  0.00     0.164 C 
ENDROOT
TORSDOF 0
ENDMDL
MODEL 4
REMARK VINA RESULT:    -5.187     17.202     18.661
REMARK INTER + INTRA:          -5.187
REMARK INTER:                  -5.187
REMARK INTRA:                   0.000
REMARK UNBOUND:                 0.000
REMARK  0 active torsions:
REMARK  status: ('A' for Active; 'I' for Inactive)
ROOT
ATOM      1  O   UNL d   1     -30.543  16.451 -10.678  0.00  0.00    -0.265 OA
ATOM      2  O   UNL d   1     -32.029  17.721  -7.818  0.00  0.00    -0.246 OA
ATOM      3  N   UNL d   1     -31.726  16.021  -7.954  0.00  0.00    -0.286 N 
ATOM      4  N   UNL d   1     -30.697  14.502  -9.735  0.00  0.00    -0.338 N 
ATOM      5  N   UNL d   1     -31.286  17.086  -9.248  0.00  0.00    -0.269 N 
ATOM      6  N   UNL d   1     -31.331  14.271  -8.274  0.00  0.00    -0.223 NA
ATOM      7  C   UNL d   1     -30.983  15.386  -9.384  0.00  0.00     0.151 A 
ATOM      8  C   UNL d   1     -31.377  15.243  -8.476  0.00  0.00     0.167 A 
ATOM      9  C   UNL d   1     -30.937  16.308  -9.770  0.00  0.00     0.282 A 
ATOM     10  C   UNL d   1     -31.680  16.943  -8.340  0.00  0.00     0.332 A 
ATOM     11  C   UNL d   1     -30.911  13.813  -9.051  0.00  0.00     0.212 A 
ATOM     12  C   UNL d   1     -32.120  15.878  -7.046  0.00  0.00     0.163 C 
ATOM     13  C   UNL d   1     -30.268  14.332 -10.622  0.00  0.00     0.157 C 
ATOM     14  C   UNL d   1     -31.241  18.007  -9.634  0.00  0.00     0.164 C 
ENDROOT
TORSDOF 0
ENDMDL
MODEL 5
REMARK VINA RESULT:    -5.176      1.671      3.428
REMARK INTER + INTRA:          -5.176
REMARK INTER:                  -5.176
REMARK INTRA:                   0.000
REMARK UNBOUND:                 0.000
REMARK  0 active torsions:
REMARK  status: ('A' for Active; 'I' for Inactive)
ROOT
ATOM      1  O   UNL d   1     -39.545  28.927   1.621  0.00  0.00    -0.265 OA
ATOM      2  O   UNL d   1     -39.270  32.371   1.363  0.00  0.00    -0.246 OA
ATOM      3  N   UNL d   1     -38.973  31.372  -0.021  0.00  0.00    -0.286 N 
ATOM      4  N   UNL d   1     -39.007  28.856  -0.480  0.00  0.00    -0.338 N 
ATOM      5  N   UNL d   1     -39.407  30.649   1.492  0.00  0.00    -0.269 N 
ATOM      6  N   UNL d   1     -38.699  30.168  -1.361  0.00  0.00    -0.223 NA
ATOM      7  C   UNL d   1     -39.111  29.650   0.109  0.00  0.00     0.151 A 
ATOM      8  C   UNL d   1     -38.920  30.465  -0.439  0.00  0.00     0.167 A 
ATOM      9  C   UNL d   1     -39.354  29.742   1.074  0.00  0.00     0.282 A 
ATOM     10  C   UNL d   1     -39.217  31.464   0.945  0.00  0.00     0.332 A 
ATOM     11  C   UNL d   1     -38.753  29.175  -1.387  0.00  0.00     0.212 A 
ATOM     12  C   UNL d   1     -38.782  32.187  -0.568  0.00  0.00     0.163 C 
ATOM     13  C   UNL d   1     -39.135  27.903  -0.208  0.00  0.00     0.157 C 
ATOM     14  C   UNL d   1     -39.651  30.741   2.458  0.00  0.00     0.164 C 
ENDROOT
TORSDOF 0
ENDMDL
