MODEL 1
REMARK VINA RESULT:    -7.601      0.000      0.000
REMARK INTER + INTRA:          -4.658
REMARK INTER:                  -8.287
REMARK INTRA:                   3.629
REMARK UNBOUND:                 3.609
REMARK  2 active torsions:
REMARK  status: ('A' for Active; 'I' for Inactive)
REMARK    1  A    between atoms: C_5  and  O_1 
REMARK    2  A    between atoms: C_4  and  C_9 
ROOT
ATOM      1  C   UNL d   1      25.268 -18.211  13.669  0.00  0.00     0.028 A 
ATOM      2  C   UNL d   1      25.825 -18.945  13.281  0.00  0.00     0.019 A 
ATOM      3  C   UNL d   1      25.984 -18.984  12.295  0.00  0.00    -0.003 A 
ATOM      4  C   UNL d   1      24.869 -17.516  13.071  0.00  0.00     0.058 A 
ATOM      5  C   UNL d   1      25.585 -18.289  11.696  0.00  0.00     0.009 A 
ATOM      6  C   UNL d   1      25.028 -17.555  12.084  0.00  0.00     0.038 A 
ATOM      7  C   UNL d   1      25.093 -18.157  14.695  0.00  0.00     0.012 A 
ATOM      8  C   UNL d   1      26.247 -19.677  13.892  0.00  0.00    -0.019 A 
ATOM      9  C   UNL d   1      25.505 -18.877  15.325  0.00  0.00     0.034 A 
ATOM     10  C   UNL d   1      24.456 -17.070  13.865  0.00  0.00     0.046 C 
ATOM     11  C   UNL d   1      26.086 -19.642  14.920  0.00  0.00    -0.087 A 
ATOM     12  C   UNL d   1      26.486 -20.339  15.516  0.00  0.00     0.043 C 
ENDROOT
BRANCH   3  13
ATOM     13  C   UNL d   1      26.541 -19.718  11.907  0.00  0.00    -0.018 C 
ATOM     14  C   UNL d   1      26.155 -20.634  11.796  0.00  0.00     0.010 C 
ATOM     15  C   UNL d   1      27.484 -19.537  11.629  0.00  0.00     0.010 C 
ENDBRANCH   3  13
BRANCH   4  16
ATOM     16  O   UNL d   1      24.317 -16.691  12.949  0.00  0.00    -0.390 OA
ATOM     17  H   UNL d   1      24.363 -16.225  13.356  0.00  0.00     0.210 HD
ENDBRANCH   4  16
TORSDOF 2
ENDMDL
MODEL 2
REMARK VINA RESULT:    -7.595      0.666      2.621
REMARK INTER + INTRA:          -4.651
REMARK INTER:                  -8.193
REMARK INTRA:                   3.541
REMARK UNBOUND:                 3.609
REMARK  2 active torsions:
REMARK  status: ('A' for Active; 'I' for Inactive)
REMARK    1  A    between atoms: C_5  and  O_1 
REMARK    2  A    between atoms: C_4  and  C_9 
ROOT
ATOM      1  C   UNL d   1      25.404 -18.347  13.137  0.00  0.00     0.028 A 
ATOM      2  C   UNL d   1      25.863 -19.060  13.668  0.00  0.00     0.019 A 
ATOM      3  C   UNL d   1      25.844 -19.030  14.667  0.00  0.00    -0.003 A 
ATOM      4  C   UNL d   1      24.927 -17.604  13.606  0.00  0.00     0.058 A 
ATOM      5  C   UNL d   1      25.366 -18.288  15.136  0.00  0.00     0.009 A 
ATOM      6  C   UNL d   1      24.907 -17.575  14.606  0.00  0.00     0.038 A 
ATOM      7  C   UNL d   1      25.416 -18.364  12.096  0.00  0.00     0.012 A 
ATOM      8  C   UNL d   1      26.365 -19.840  13.194  0.00  0.00    -0.019 A 
ATOM      9  C   UNL d   1      25.911 -19.135  11.600  0.00  0.00     0.034 A 
ATOM     10  C   UNL d   1      24.673 -17.210  12.723  0.00  0.00     0.046 C 
ATOM     11  C   UNL d   1      26.389 -19.878  12.153  0.00  0.00    -0.087 A 
ATOM     12  C   UNL d   1      26.868 -20.622  11.687  0.00  0.00     0.043 C 
ENDROOT
BRANCH   3  13
ATOM     13  C   UNL d   1      26.303 -19.743  15.198  0.00  0.00    -0.018 C 
ATOM     14  C   UNL d   1      25.820 -20.591  15.418  0.00  0.00     0.010 C 
ATOM     15  C   UNL d   1      27.244 -19.609  15.507  0.00  0.00     0.010 C 
ENDBRANCH   3  13
BRANCH   4  16
ATOM     16  O   UNL d   1      24.386 -16.764  13.571  0.00  0.00    -0.390 OA
ATOM     17  H   UNL d   1      24.246 -16.463  14.095  0.00  0.00     0.210 HD
ENDBRANCH   4  16
TORSDOF 2
ENDMDL
MODEL 3
REMARK VINA RESULT:    -7.449      1.763      3.154
REMARK INTER + INTRA:          -4.493
REMARK INTER:                  -8.111
REMARK INTRA:                   3.618
REMARK UNBOUND:                 3.609
REMARK  2 active torsions:
REMARK  status: ('A' for Active; 'I' for Inactive)
REMARK    1  A    between atoms: C_5  and  O_1 
REMARK    2  A    between atoms: C_4  and  C_9 
ROOT
ATOM      1  C   UNL d   1      26.540 -17.337  11.231  0.00  0.00     0.028 A 
ATOM      2  C   UNL d   1      26.322 -18.129  11.801  0.00  0.00     0.019 A 
ATOM      3  C   UNL d   1      26.853 -18.972  11.708  0.00  0.00    -0.003 A 
ATOM      4  C   UNL d   1      27.287 -17.386  10.569  0.00  0.00     0.058 A 
ATOM      5  C   UNL d   1      27.601 -19.022  11.046  0.00  0.00     0.009 A 
ATOM      6  C   UNL d   1      27.818 -18.229  10.477  0.00  0.00     0.038 A 
ATOM      7  C   UNL d   1      25.996 -16.452  11.316  0.00  0.00     0.012 A 
ATOM      8  C   UNL d   1      25.546 -18.093  12.495  0.00  0.00    -0.019 A 
ATOM      9  C   UNL d   1      25.216 -16.393  12.004  0.00  0.00     0.034 A 
ATOM     10  C   UNL d   1      27.106 -16.442  10.294  0.00  0.00     0.046 C 
ATOM     11  C   UNL d   1      24.989 -17.219  12.597  0.00  0.00    -0.087 A 
ATOM     12  C   UNL d   1      24.242 -17.173  13.260  0.00  0.00     0.043 C 
ENDROOT
BRANCH   3  13
ATOM     13  C   UNL d   1      26.636 -19.765  12.278  0.00  0.00    -0.018 C 
ATOM     14  C   UNL d   1      26.933 -19.792  13.232  0.00  0.00     0.010 C 
ATOM     15  C   UNL d   1      26.121 -20.531  11.893  0.00  0.00     0.010 C 
ENDBRANCH   3  13
BRANCH   4  16
ATOM     16  O   UNL d   1      27.845 -16.957   9.858  0.00  0.00    -0.390 OA
ATOM     17  H   UNL d   1      27.681 -17.009   9.263  0.00  0.00     0.210 HD
ENDBRANCH   4  16
TORSDOF 2
ENDMDL
MODEL 4
REMARK VINA RESULT:    -7.424      1.933      3.359
REMARK INTER + INTRA:          -4.466
REMARK INTER:                  -8.022
REMARK INTRA:                   3.556
REMARK UNBOUND:                 3.609
REMARK  2 active torsions:
REMARK  status: ('A' for Active; 'I' for Inactive)
REMARK    1  A    between atoms: C_5  and  O_1 
REMARK    2  A    between atoms: C_4  and  C_9 
ROOT
ATOM      1  C   UNL d   1      26.165 -18.636  12.024  0.00  0.00     0.028 A 
ATOM      2  C   UNL d   1      26.400 -17.718  11.703  0.00  0.00     0.019 A 
ATOM      3  C   UNL d   1      27.093 -17.599  10.992  0.00  0.00    -0.003 A 
ATOM      4  C   UNL d   1      26.624 -19.434  11.634  0.00  0.00     0.058 A 
ATOM      5  C   UNL d   1      27.552 -18.397  10.602  0.00  0.00     0.009 A 
ATOM      6  C   UNL d   1      27.317 -19.315  10.923  0.00  0.00     0.038 A 
ATOM      7  C   UNL d   1      25.445 -18.776  12.763  0.00  0.00     0.012 A 
ATOM      8  C   UNL d   1      25.931 -16.876  12.099  0.00  0.00    -0.019 A 
ATOM      9  C   UNL d   1      24.963 -17.949  13.174  0.00  0.00     0.034 A 
ATOM     10  C   UNL d   1      26.088 -20.033  12.229  0.00  0.00     0.046 C 
ATOM     11  C   UNL d   1      25.208 -16.993  12.840  0.00  0.00    -0.087 A 
ATOM     12  C   UNL d   1      24.751 -16.192  13.228  0.00  0.00     0.043 C 
ENDROOT
BRANCH   3  13
ATOM     13  C   UNL d   1      27.328 -16.681  10.671  0.00  0.00    -0.018 C 
ATOM     14  C   UNL d   1      28.114 -16.201  11.060  0.00  0.00     0.010 C 
ATOM     15  C   UNL d   1      26.776 -16.243   9.961  0.00  0.00     0.010 C 
ENDBRANCH   3  13
BRANCH   4  16
ATOM     16  O   UNL d   1      26.753 -20.425  11.594  0.00  0.00    -0.390 OA
ATOM     17  H   UNL d   1      26.847 -20.703  11.048  0.00  0.00     0.210 HD
ENDBRANCH   4  16
TORSDOF 2
ENDMDL
MODEL 5
REMARK VINA RESULT:    -7.388      1.848      4.074
REMARK INTER + INTRA:          -4.426
REMARK INTER:                  -7.958
REMARK INTRA:                   3.532
REMARK UNBOUND:                 3.609
REMARK  2 active torsions:
REMARK  status: ('A' for Active; 'I' for Inactive)
REMARK    1  A    between atoms: C_5  and  O_1 
REMARK    2  A    between atoms: C_4  and  C_9 
ROOT
ATOM      1  C   UNL d   1      26.743 -18.664  11.492  0.00  0.00     0.028 A 
ATOM      2  C   UNL d   1      26.267 -17.800  11.660  0.00  0.00     0.019 A 
ATOM      3  C   UNL d   1      25.520 -17.762  12.324  0.00  0.00    -0.003 A 
ATOM      4  C   UNL d   1      26.473 -19.488  11.989  0.00  0.00     0.058 A 
ATOM      5  C   UNL d   1      25.250 -18.587  12.821  0.00  0.00     0.009 A 
ATOM      6  C   UNL d   1      25.726 -19.450  12.653  0.00  0.00     0.038 A 
ATOM      7  C   UNL d   1      27.523 -18.719  10.803  0.00  0.00     0.012 A 
ATOM      8  C   UNL d   1      26.537 -16.933  11.151  0.00  0.00    -0.019 A 
ATOM      9  C   UNL d   1      27.810 -17.864  10.283  0.00  0.00     0.034 A 
ATOM     10  C   UNL d   1      27.179 -20.009  11.508  0.00  0.00     0.046 C 
ATOM     11  C   UNL d   1      27.314 -16.965  10.458  0.00  0.00    -0.087 A 
ATOM     12  C   UNL d   1      27.582 -16.138   9.963  0.00  0.00     0.043 C 
ENDROOT
BRANCH   3  13
ATOM     13  C   UNL d   1      25.044 -16.899  12.492  0.00  0.00    -0.018 C 
ATOM     14  C   UNL d   1      25.358 -16.288  13.219  0.00  0.00     0.010 C 
ATOM     15  C   UNL d   1      24.254 -16.647  11.933  0.00  0.00     0.010 C 
ENDBRANCH   3  13
BRANCH   4  16
ATOM     16  O   UNL d   1      26.592 -20.463  12.178  0.00  0.00    -0.390 OA
ATOM     17  H   UNL d   1      26.101 -20.812  12.329  0.00  0.00     0.210 HD
ENDBRANCH   4  16
TORSDOF 2
ENDMDL
