MODEL 1
REMARK VINA RESULT:   -11.268      0.000      0.000
REMARK INTER + INTRA:         -12.594
REMARK INTER:                 -13.901
REMARK INTRA:                   1.307
REMARK UNBOUND:                 1.310
REMARK  6 active torsions:
REMARK  status: ('A' for Active; 'I' for Inactive)
REMARK    1  A    between atoms: C_22  and  O_1 
REMARK    2  A    between atoms: C_24  and  O_2 
REMARK    3  A    between atoms: O_3  and  C_30 
REMARK    4  A    between atoms: O_4  and  C_33 
REMARK    5  A    between atoms: C_14  and  C_30 
REMARK    6  A    between atoms: C_19  and  C_33 
ROOT
ATOM      1  C   UNL d   1      21.698 -43.099  19.821  0.00  0.00    -0.028 A 
ATOM      2  C   UNL d   1      22.445 -42.468  19.610  0.00  0.00     0.007 A 
ATOM      3  C   UNL d   1      22.248 -41.506  19.261  0.00  0.00    -0.033 A 
ATOM      4  C   UNL d   1      21.902 -44.019  20.155  0.00  0.00    -0.013 A 
ATOM      5  C   UNL d   1      21.263 -41.198  19.129  0.00  0.00     0.007 A 
ATOM      6  C   UNL d   1      20.705 -42.813  19.696  0.00  0.00     0.011 A 
ATOM      7  C   UNL d   1      22.851 -44.308  20.279  0.00  0.00    -0.069 A 
ATOM      8  C   UNL d   1      20.485 -41.856  19.348  0.00  0.00     0.007 A 
ATOM      9  C   UNL d   1      21.034 -40.201  18.766  0.00  0.00     0.010 A 
ATOM     10  C   UNL d   1      23.079 -45.263  20.627  0.00  0.00     0.038 A 
ATOM     11  C   UNL d   1      23.394 -42.756  19.734  0.00  0.00     0.033 A 
ATOM     12  C   UNL d   1      23.074 -40.838  19.039  0.00  0.00     0.044 A 
ATOM     13  C   UNL d   1      21.113 -44.666  20.370  0.00  0.00     0.016 A 
ATOM     14  C   UNL d   1      22.307 -45.927  20.848  0.00  0.00     0.053 A 
ATOM     15  C   UNL d   1      20.770 -43.454  19.928  0.00  0.00     0.016 C 
ATOM     16  C   UNL d   1      21.317 -45.626  20.719  0.00  0.00     0.022 A 
ATOM     17  C   UNL d   1      21.843 -39.516  18.538  0.00  0.00     0.157 A 
ATOM     18  C   UNL d   1      23.597 -43.676  20.069  0.00  0.00    -0.022 A 
ATOM     19  C   UNL d   1      22.870 -39.836  18.675  0.00  0.00     0.148 A 
ATOM     20  C   UNL d   1      23.195 -41.802  19.388  0.00  0.00     0.016 C 
ATOM     21  C   UNL d   1      20.902 -44.055  20.146  0.00  0.00     0.021 C 
ATOM     22  C   UNL d   1      24.116 -45.554  20.754  0.00  0.00    -0.005 A 
ATOM     23  C   UNL d   1      22.519 -46.927  21.212  0.00  0.00     0.021 A 
ATOM     24  C   UNL d   1      24.353 -46.548  21.116  0.00  0.00    -0.014 A 
ATOM     25  C   UNL d   1      20.056 -40.403  18.817  0.00  0.00     0.020 C 
ATOM     26  C   UNL d   1      23.549 -47.240  21.347  0.00  0.00     0.006 A 
ATOM     27  C   UNL d   1      24.850 -44.908  20.539  0.00  0.00     0.011 C 
ATOM     28  C   UNL d   1      25.306 -46.826  21.237  0.00  0.00     0.010 C 
ENDROOT
BRANCH   9  29
ATOM     29  C   UNL d   1      20.365 -39.506  18.502  0.00  0.00     0.176 C 
BRANCH  29  30
ATOM     30  O   UNL d   1      19.444 -39.524  18.891  0.00  0.00    -0.400 OA
ATOM     31  H   UNL d   1      18.960 -39.672  18.533  0.00  0.00     0.209 HD
ENDBRANCH  29  30
ENDBRANCH   9  29
BRANCH  17  32
ATOM     32  O   UNL d   1      21.644 -38.595  18.203  0.00  0.00    -0.392 OA
ATOM     33  H   UNL d   1      21.777 -38.102  18.554  0.00  0.00     0.210 HD
ENDBRANCH  17  32
BRANCH  19  34
ATOM     34  O   UNL d   1      23.624 -39.213  18.468  0.00  0.00    -0.393 OA
ATOM     35  H   UNL d   1      24.152 -39.433  18.228  0.00  0.00     0.210 HD
ENDBRANCH  19  34
BRANCH  14  36
ATOM     36  C   UNL d   1      21.566 -46.564  21.061  0.00  0.00     0.149 C 
ATOM     37  O   UNL d   1      21.211 -47.171  20.350  0.00  0.00    -0.649 OA
BRANCH  36  38
ATOM     38  O   UNL d   1      21.181 -46.594  21.983  0.00  0.00    -0.776 OA
ATOM     39  H   UNL d   1      20.972 -47.130  22.214  0.00  0.00     0.167 HD
ENDBRANCH  36  38
ENDBRANCH  14  36
TORSDOF 6
ENDMDL
MODEL 2
REMARK VINA RESULT:   -11.032      1.472      2.819
REMARK INTER + INTRA:         -12.302
REMARK INTER:                 -13.626
REMARK INTRA:                   1.324
REMARK UNBOUND:                 1.310
REMARK  6 active torsions:
REMARK  status: ('A' for Active; 'I' for Inactive)
REMARK    1  A    between atoms: C_22  and  O_1 
REMARK    2  A    between atoms: C_24  and  O_2 
REMARK    3  A    between atoms: O_3  and  C_30 
REMARK    4  A    between atoms: O_4  and  C_33 
REMARK    5  A    between atoms: C_14  and  C_30 
REMARK    6  A    between atoms: C_19  and  C_33 
ROOT
ATOM      1  C   UNL d   1      22.880 -42.508  19.663  0.00  0.00    -0.028 A 
ATOM      2  C   UNL d   1      21.886 -42.607  19.689  0.00  0.00     0.007 A 
ATOM      3  C   UNL d   1      21.263 -41.819  19.414  0.00  0.00    -0.033 A 
ATOM      4  C   UNL d   1      23.466 -43.274  19.930  0.00  0.00    -0.013 A 
ATOM      5  C   UNL d   1      21.681 -40.916  19.108  0.00  0.00     0.007 A 
ATOM      6  C   UNL d   1      23.321 -41.615  19.361  0.00  0.00     0.011 A 
ATOM      7  C   UNL d   1      23.057 -44.138  20.223  0.00  0.00    -0.069 A 
ATOM      8  C   UNL d   1      22.718 -40.813  19.081  0.00  0.00     0.007 A 
ATOM      9  C   UNL d   1      21.052 -40.081  18.816  0.00  0.00     0.010 A 
ATOM     10  C   UNL d   1      23.654 -44.944  20.504  0.00  0.00     0.038 A 
ATOM     11  C   UNL d   1      21.477 -43.471  19.982  0.00  0.00     0.033 A 
ATOM     12  C   UNL d   1      20.186 -41.949  19.450  0.00  0.00     0.044 A 
ATOM     13  C   UNL d   1      24.501 -43.155  19.898  0.00  0.00     0.016 A 
ATOM     14  C   UNL d   1      24.691 -44.849  20.480  0.00  0.00     0.053 A 
ATOM     15  C   UNL d   1      23.781 -42.094  19.528  0.00  0.00     0.016 C 
ATOM     16  C   UNL d   1      25.117 -43.948  20.175  0.00  0.00     0.022 A 
ATOM     17  C   UNL d   1      19.974 -40.188  18.845  0.00  0.00     0.157 A 
ATOM     18  C   UNL d   1      22.062 -44.237  20.249  0.00  0.00    -0.022 A 
ATOM     19  C   UNL d   1      19.537 -41.128  19.164  0.00  0.00     0.148 A 
ATOM     20  C   UNL d   1      20.861 -42.686  19.708  0.00  0.00     0.016 C 
ATOM     21  C   UNL d   1      24.163 -42.593  19.703  0.00  0.00     0.021 C 
ATOM     22  C   UNL d   1      23.187 -45.871  20.818  0.00  0.00    -0.005 A 
ATOM     23  C   UNL d   1      25.333 -45.674  20.768  0.00  0.00     0.021 A 
ATOM     24  C   UNL d   1      23.809 -46.711  21.111  0.00  0.00    -0.014 A 
ATOM     25  C   UNL d   1      21.866 -39.528  18.634  0.00  0.00     0.020 C 
ATOM     26  C   UNL d   1      24.889 -46.612  21.086  0.00  0.00     0.006 A 
ATOM     27  C   UNL d   1      22.190 -45.952  20.838  0.00  0.00     0.011 C 
ATOM     28  C   UNL d   1      23.389 -47.570  21.403  0.00  0.00     0.010 C 
ENDROOT
BRANCH   9  29
ATOM     29  C   UNL d   1      20.955 -39.140  18.493  0.00  0.00     0.176 C 
BRANCH  29  30
ATOM     30  O   UNL d   1      21.658 -38.736  17.908  0.00  0.00    -0.400 OA
ATOM     31  H   UNL d   1      21.525 -38.587  17.321  0.00  0.00     0.209 HD
ENDBRANCH  29  30
ENDBRANCH   9  29
BRANCH  17  32
ATOM     32  O   UNL d   1      19.385 -39.425  18.578  0.00  0.00    -0.392 OA
ATOM     33  H   UNL d   1      19.597 -38.843  18.610  0.00  0.00     0.210 HD
ENDBRANCH  17  32
BRANCH  19  34
ATOM     34  O   UNL d   1      18.544 -41.238  19.193  0.00  0.00    -0.393 OA
ATOM     35  H   UNL d   1      18.176 -40.789  18.977  0.00  0.00     0.210 HD
ENDBRANCH  19  34
BRANCH  14  36
ATOM     36  C   UNL d   1      25.686 -44.757  20.457  0.00  0.00     0.149 C 
ATOM     37  O   UNL d   1      26.191 -45.005  19.630  0.00  0.00    -0.649 OA
BRANCH  36  38
ATOM     38  O   UNL d   1      26.177 -44.419  21.259  0.00  0.00    -0.776 OA
ATOM     39  H   UNL d   1      26.768 -44.579  21.351  0.00  0.00     0.167 HD
ENDBRANCH  36  38
ENDBRANCH  14  36
TORSDOF 6
ENDMDL
MODEL 3
REMARK VINA RESULT:   -10.882     13.268     13.673
REMARK INTER + INTRA:         -12.117
REMARK INTER:                 -13.441
REMARK INTRA:                   1.324
REMARK UNBOUND:                 1.310
REMARK  6 active torsions:
REMARK  status: ('A' for Active; 'I' for Inactive)
REMARK    1  A    between atoms: C_22  and  O_1 
REMARK    2  A    between atoms: C_24  and  O_2 
REMARK    3  A    between atoms: O_3  and  C_30 
REMARK    4  A    between atoms: O_4  and  C_33 
REMARK    5  A    between atoms: C_14  and  C_30 
REMARK    6  A    between atoms: C_19  and  C_33 
ROOT
ATOM      1  C   UNL d   1      32.485 -40.332  12.056  0.00  0.00    -0.028 A 
ATOM      2  C   UNL d   1      32.932 -40.533  12.928  0.00  0.00     0.007 A 
ATOM      3  C   UNL d   1      33.177 -39.768  13.591  0.00  0.00    -0.033 A 
ATOM      4  C   UNL d   1      32.256 -41.077  11.429  0.00  0.00    -0.013 A 
ATOM      5  C   UNL d   1      32.953 -38.782  13.343  0.00  0.00     0.007 A 
ATOM      6  C   UNL d   1      32.252 -39.354  11.787  0.00  0.00     0.011 A 
ATOM      7  C   UNL d   1      32.474 -42.021  11.674  0.00  0.00    -0.069 A 
ATOM      8  C   UNL d   1      32.488 -38.573  12.435  0.00  0.00     0.007 A 
ATOM      9  C   UNL d   1      33.199 -37.968  14.019  0.00  0.00     0.010 A 
ATOM     10  C   UNL d   1      32.241 -42.808  11.031  0.00  0.00     0.038 A 
ATOM     11  C   UNL d   1      33.150 -41.477  13.173  0.00  0.00     0.033 A 
ATOM     12  C   UNL d   1      33.661 -40.009  14.532  0.00  0.00     0.044 A 
ATOM     13  C   UNL d   1      31.790 -40.852  10.524  0.00  0.00     0.016 A 
ATOM     14  C   UNL d   1      31.776 -42.607  10.121  0.00  0.00     0.053 A 
ATOM     15  C   UNL d   1      32.067 -39.810  11.312  0.00  0.00     0.016 C 
ATOM     16  C   UNL d   1      31.549 -41.622   9.866  0.00  0.00     0.022 A 
ATOM     17  C   UNL d   1      33.683 -38.185  14.964  0.00  0.00     0.157 A 
ATOM     18  C   UNL d   1      32.920 -42.222  12.546  0.00  0.00    -0.022 A 
ATOM     19  C   UNL d   1      33.916 -39.213  15.223  0.00  0.00     0.148 A 
ATOM     20  C   UNL d   1      33.391 -40.715  13.829  0.00  0.00     0.016 C 
ATOM     21  C   UNL d   1      31.918 -40.296  10.903  0.00  0.00     0.021 C 
ATOM     22  C   UNL d   1      32.487 -43.824  11.318  0.00  0.00    -0.005 A 
ATOM     23  C   UNL d   1      31.524 -43.409   9.435  0.00  0.00     0.021 A 
ATOM     24  C   UNL d   1      32.245 -44.643  10.649  0.00  0.00    -0.014 A 
ATOM     25  C   UNL d   1      32.814 -37.310  13.371  0.00  0.00     0.020 C 
ATOM     26  C   UNL d   1      31.760 -44.434   9.701  0.00  0.00     0.006 A 
ATOM     27  C   UNL d   1      32.934 -44.006  12.195  0.00  0.00     0.011 C 
ATOM     28  C   UNL d   1      32.467 -45.584  10.904  0.00  0.00     0.010 C 
ENDROOT
BRANCH   9  29
ATOM     29  C   UNL d   1      33.204 -36.992  14.236  0.00  0.00     0.176 C 
BRANCH  29  30
ATOM     30  O   UNL d   1      33.319 -36.318  13.506  0.00  0.00    -0.400 OA
ATOM     31  H   UNL d   1      33.528 -36.495  12.950  0.00  0.00     0.209 HD
ENDBRANCH  29  30
ENDBRANCH   9  29
BRANCH  17  32
ATOM     32  O   UNL d   1      33.914 -37.444  15.594  0.00  0.00    -0.392 OA
ATOM     33  H   UNL d   1      33.972 -36.863  15.383  0.00  0.00     0.210 HD
ENDBRANCH  17  32
BRANCH  19  34
ATOM     34  O   UNL d   1      34.363 -39.424  16.092  0.00  0.00    -0.393 OA
ATOM     35  H   UNL d   1      34.303 -39.988  16.343  0.00  0.00     0.210 HD
ENDBRANCH  19  34
BRANCH  14  36
ATOM     36  C   UNL d   1      31.329 -42.414   9.248  0.00  0.00     0.149 C 
ATOM     37  O   UNL d   1      30.330 -42.411   9.188  0.00  0.00    -0.649 OA
BRANCH  36  38
ATOM     38  O   UNL d   1      31.879 -42.226   8.435  0.00  0.00    -0.776 OA
ATOM     39  H   UNL d   1      32.437 -41.962   8.493  0.00  0.00     0.167 HD
ENDBRANCH  36  38
ENDBRANCH  14  36
TORSDOF 6
ENDMDL
MODEL 4
REMARK VINA RESULT:   -10.839      1.879      5.781
REMARK INTER + INTRA:         -12.064
REMARK INTER:                 -13.384
REMARK INTRA:                   1.320
REMARK UNBOUND:                 1.310
REMARK  6 active torsions:
REMARK  status: ('A' for Active; 'I' for Inactive)
REMARK    1  A    between atoms: C_22  and  O_1 
REMARK    2  A    between atoms: C_24  and  O_2 
REMARK    3  A    between atoms: O_3  and  C_30 
REMARK    4  A    between atoms: O_4  and  C_33 
REMARK    5  A    between atoms: C_14  and  C_30 
REMARK    6  A    between atoms: C_19  and  C_33 
ROOT
ATOM      1  C   UNL d   1      23.070 -42.455  19.742  0.00  0.00    -0.028 A 
ATOM      2  C   UNL d   1      23.073 -43.396  20.080  0.00  0.00     0.007 A 
ATOM      3  C   UNL d   1      23.963 -43.864  20.350  0.00  0.00    -0.033 A 
ATOM      4  C   UNL d   1      22.207 -42.019  19.486  0.00  0.00    -0.013 A 
ATOM      5  C   UNL d   1      24.862 -43.345  20.268  0.00  0.00     0.007 A 
ATOM      6  C   UNL d   1      23.956 -41.916  19.653  0.00  0.00     0.011 A 
ATOM      7  C   UNL d   1      21.348 -42.524  19.568  0.00  0.00    -0.069 A 
ATOM      8  C   UNL d   1      24.859 -42.364  19.917  0.00  0.00     0.007 A 
ATOM      9  C   UNL d   1      25.802 -43.811  20.544  0.00  0.00     0.010 A 
ATOM     10  C   UNL d   1      20.441 -42.083  19.305  0.00  0.00     0.038 A 
ATOM     11  C   UNL d   1      22.214 -43.901  20.161  0.00  0.00     0.033 A 
ATOM     12  C   UNL d   1      23.942 -44.886  20.713  0.00  0.00     0.044 A 
ATOM     13  C   UNL d   1      22.220 -41.037  19.137  0.00  0.00     0.016 A 
ATOM     14  C   UNL d   1      20.430 -41.102  18.953  0.00  0.00     0.053 A 
ATOM     15  C   UNL d   1      23.406 -41.556  19.460  0.00  0.00     0.016 C 
ATOM     16  C   UNL d   1      21.325 -40.576  18.868  0.00  0.00     0.022 A 
ATOM     17  C   UNL d   1      25.806 -44.832  20.910  0.00  0.00     0.157 A 
ATOM     18  C   UNL d   1      21.351 -43.465  19.905  0.00  0.00    -0.022 A 
ATOM     19  C   UNL d   1      24.870 -45.374  20.995  0.00  0.00     0.148 A 
ATOM     20  C   UNL d   1      23.100 -44.363  20.429  0.00  0.00     0.016 C 
ATOM     21  C   UNL d   1      22.844 -41.272  19.293  0.00  0.00     0.021 C 
ATOM     22  C   UNL d   1      19.522 -42.650  19.401  0.00  0.00    -0.005 A 
ATOM     23  C   UNL d   1      19.498 -40.622  18.673  0.00  0.00     0.021 A 
ATOM     24  C   UNL d   1      18.578 -42.191  19.128  0.00  0.00    -0.014 A 
ATOM     25  C   UNL d   1      26.293 -42.974  20.302  0.00  0.00     0.020 C 
ATOM     26  C   UNL d   1      18.566 -41.170  18.761  0.00  0.00     0.006 A 
ATOM     27  C   UNL d   1      19.544 -43.591  19.741  0.00  0.00     0.011 C 
ATOM     28  C   UNL d   1      17.725 -42.706  19.213  0.00  0.00     0.010 C 
ENDROOT
BRANCH   9  29
ATOM     29  C   UNL d   1      26.796 -43.768  20.644  0.00  0.00     0.176 C 
BRANCH  29  30
ATOM     30  O   UNL d   1      27.305 -43.002  20.251  0.00  0.00    -0.400 OA
ATOM     31  H   UNL d   1      27.652 -43.089  19.744  0.00  0.00     0.209 HD
ENDBRANCH  29  30
ENDBRANCH   9  29
BRANCH  17  32
ATOM     32  O   UNL d   1      26.666 -45.272  21.167  0.00  0.00    -0.392 OA
ATOM     33  H   UNL d   1      26.959 -45.640  20.763  0.00  0.00     0.210 HD
ENDBRANCH  17  32
BRANCH  19  34
ATOM     34  O   UNL d   1      24.862 -46.315  21.331  0.00  0.00    -0.393 OA
ATOM     35  H   UNL d   1      24.760 -46.784  20.938  0.00  0.00     0.210 HD
ENDBRANCH  19  34
BRANCH  14  36
ATOM     36  C   UNL d   1      20.418 -40.161  18.615  0.00  0.00     0.149 C 
ATOM     37  O   UNL d   1      20.574 -39.978  17.644  0.00  0.00    -0.649 OA
BRANCH  36  38
ATOM     38  O   UNL d   1      20.252 -39.405  19.246  0.00  0.00    -0.776 OA
ATOM     39  H   UNL d   1      20.184 -38.828  19.029  0.00  0.00     0.167 HD
ENDBRANCH  36  38
ENDBRANCH  14  36
TORSDOF 6
ENDMDL
MODEL 5
REMARK VINA RESULT:   -10.753      0.912      2.643
REMARK INTER + INTRA:         -11.958
REMARK INTER:                 -13.269
REMARK INTRA:                   1.311
REMARK UNBOUND:                 1.310
REMARK  6 active torsions:
REMARK  status: ('A' for Active; 'I' for Inactive)
REMARK    1  A    between atoms: C_22  and  O_1 
REMARK    2  A    between atoms: C_24  and  O_2 
REMARK    3  A    between atoms: O_3  and  C_30 
REMARK    4  A    between atoms: O_4  and  C_33 
REMARK    5  A    between atoms: C_14  and  C_30 
REMARK    6  A    between atoms: C_19  and  C_33 
ROOT
ATOM      1  C   UNL d   1      22.241 -43.053  19.881  0.00  0.00    -0.028 A 
ATOM      2  C   UNL d   1      21.381 -42.604  19.638  0.00  0.00     0.007 A 
ATOM      3  C   UNL d   1      21.367 -41.610  19.326  0.00  0.00    -0.033 A 
ATOM      4  C   UNL d   1      22.240 -44.007  20.179  0.00  0.00    -0.013 A 
ATOM      5  C   UNL d   1      22.259 -41.077  19.266  0.00  0.00     0.007 A 
ATOM      6  C   UNL d   1      23.145 -42.539  19.828  0.00  0.00     0.011 A 
ATOM      7  C   UNL d   1      21.379 -44.513  20.234  0.00  0.00    -0.069 A 
ATOM      8  C   UNL d   1      23.155 -41.545  19.519  0.00  0.00     0.007 A 
ATOM      9  C   UNL d   1      22.268 -40.041  18.943  0.00  0.00     0.010 A 
ATOM     10  C   UNL d   1      21.362 -45.508  20.543  0.00  0.00     0.038 A 
ATOM     11  C   UNL d   1      20.520 -43.110  19.693  0.00  0.00     0.033 A 
ATOM     12  C   UNL d   1      20.421 -41.144  19.067  0.00  0.00     0.044 A 
ATOM     13  C   UNL d   1      23.144 -44.461  20.429  0.00  0.00     0.016 A 
ATOM     14  C   UNL d   1      22.254 -45.982  20.798  0.00  0.00     0.053 A 
ATOM     15  C   UNL d   1      23.220 -43.186  20.040  0.00  0.00     0.016 C 
ATOM     16  C   UNL d   1      23.151 -45.455  20.740  0.00  0.00     0.022 A 
ATOM     17  C   UNL d   1      21.336 -39.554  18.679  0.00  0.00     0.157 A 
ATOM     18  C   UNL d   1      20.519 -44.064  19.991  0.00  0.00    -0.022 A 
ATOM     19  C   UNL d   1      20.406 -40.109  18.742  0.00  0.00     0.148 A 
ATOM     20  C   UNL d   1      20.510 -42.122  19.383  0.00  0.00     0.016 C 
ATOM     21  C   UNL d   1      23.219 -43.809  20.234  0.00  0.00     0.021 C 
ATOM     22  C   UNL d   1      20.416 -46.036  20.595  0.00  0.00    -0.005 A 
ATOM     23  C   UNL d   1      22.261 -47.017  21.122  0.00  0.00     0.021 A 
ATOM     24  C   UNL d   1      20.398 -47.072  20.917  0.00  0.00    -0.014 A 
ATOM     25  C   UNL d   1      23.262 -40.012  19.053  0.00  0.00     0.020 C 
ATOM     26  C   UNL d   1      21.327 -47.566  21.182  0.00  0.00     0.006 A 
ATOM     27  C   UNL d   1      19.565 -45.571  20.348  0.00  0.00     0.011 C 
ATOM     28  C   UNL d   1      19.531 -47.567  20.968  0.00  0.00     0.010 C 
ENDROOT
BRANCH   9  29
ATOM     29  C   UNL d   1      22.770 -39.200  18.740  0.00  0.00     0.176 C 
BRANCH  29  30
ATOM     30  O   UNL d   1      23.739 -39.241  18.498  0.00  0.00    -0.400 OA
ATOM     31  H   UNL d   1      24.153 -39.448  18.911  0.00  0.00     0.209 HD
ENDBRANCH  29  30
ENDBRANCH   9  29
BRANCH  17  32
ATOM     32  O   UNL d   1      21.333 -38.600  18.381  0.00  0.00    -0.392 OA
ATOM     33  H   UNL d   1      20.944 -38.416  17.934  0.00  0.00     0.210 HD
ENDBRANCH  17  32
BRANCH  19  34
ATOM     34  O   UNL d   1      19.540 -39.670  18.501  0.00  0.00    -0.393 OA
ATOM     35  H   UNL d   1      19.458 -39.066  18.612  0.00  0.00     0.210 HD
ENDBRANCH  19  34
BRANCH  14  36
ATOM     36  C   UNL d   1      23.110 -46.438  21.042  0.00  0.00     0.149 C 
ATOM     37  O   UNL d   1      23.619 -46.949  20.350  0.00  0.00    -0.649 OA
BRANCH  36  38
ATOM     38  O   UNL d   1      23.456 -46.382  21.978  0.00  0.00    -0.776 OA
ATOM     39  H   UNL d   1      23.171 -46.693  22.433  0.00  0.00     0.167 HD
ENDBRANCH  36  38
ENDBRANCH  14  36
TORSDOF 6
ENDMDL
