MODEL 1
REMARK VINA RESULT:    -7.913      0.000      0.000
REMARK INTER + INTRA:          -7.773
REMARK INTER:                  -8.960
REMARK INTRA:                   1.187
REMARK UNBOUND:                 1.066
REMARK  3 active torsions:
REMARK  status: ('A' for Active; 'I' for Inactive)
REMARK    1  A    between atoms: O_2  and  C_10 
REMARK    2  A    between atoms: O_4  and  C_13 
REMARK    3  A    between atoms: C_7  and  C_9 
ROOT
ATOM      1  O   UNL d   1      21.990 -41.855  18.909  0.00  0.00    -0.309 OA
ATOM      2  O   UNL d   1      19.634 -40.552  20.231  0.00  0.00    -0.287 OA
ATOM      3  C   UNL d   1      20.899 -40.518  19.048  0.00  0.00     0.081 A 
ATOM      4  C   UNL d   1      21.684 -40.953  18.607  0.00  0.00     0.095 A 
ATOM      5  C   UNL d   1      21.511 -42.324  19.651  0.00  0.00     0.090 A 
ATOM      6  C   UNL d   1      20.420 -40.986  19.790  0.00  0.00     0.190 A 
ATOM      7  C   UNL d   1      20.568 -39.578  18.744  0.00  0.00     0.085 A 
ATOM      8  C   UNL d   1      20.726 -41.889  20.092  0.00  0.00     0.094 A 
ATOM      9  C   UNL d   1      22.193 -40.477  17.832  0.00  0.00     0.075 A 
ATOM     10  C   UNL d   1      21.880 -39.537  17.513  0.00  0.00     0.071 A 
ATOM     11  C   UNL d   1      21.062 -39.084  17.971  0.00  0.00     0.074 A 
ENDROOT
BRANCH   5  12
ATOM     12  C   UNL d   1      21.818 -43.227  19.953  0.00  0.00    -0.002 A 
ATOM     13  C   UNL d   1      21.153 -43.963  20.081  0.00  0.00     0.014 A 
ATOM     14  C   UNL d   1      21.460 -44.866  20.382  0.00  0.00     0.001 A 
ATOM     15  C   UNL d   1      22.430 -45.032  20.556  0.00  0.00     0.000 A 
ATOM     16  C   UNL d   1      23.095 -44.296  20.428  0.00  0.00     0.001 A 
ATOM     17  C   UNL d   1      22.788 -43.393  20.126  0.00  0.00     0.014 A 
ENDBRANCH   5  12
BRANCH   7  18
ATOM     18  O   UNL d   1      19.782 -39.153  19.192  0.00  0.00    -0.360 OA
ATOM     19  H   UNL d   1      19.869 -38.767  19.669  0.00  0.00     0.217 HD
ENDBRANCH   7  18
BRANCH  10  20
ATOM     20  O   UNL d   1      22.362 -39.072  16.770  0.00  0.00    -0.361 OA
ATOM     21  H   UNL d   1      22.503 -39.381  16.251  0.00  0.00     0.217 HD
ENDBRANCH  10  20
TORSDOF 3
ENDMDL
MODEL 2
REMARK VINA RESULT:    -7.799     27.924     29.748
REMARK INTER + INTRA:          -7.645
REMARK INTER:                  -8.997
REMARK INTRA:                   1.352
REMARK UNBOUND:                 1.066
REMARK  3 active torsions:
REMARK  status: ('A' for Active; 'I' for Inactive)
REMARK    1  A    between atoms: O_2  and  C_10 
REMARK    2  A    between atoms: O_4  and  C_13 
REMARK    3  A    between atoms: C_7  and  C_9 
ROOT
ATOM      1  O   UNL d   1      39.908 -23.893   3.744  0.00  0.00    -0.309 OA
ATOM      2  O   UNL d   1      40.961 -24.334   6.518  0.00  0.00    -0.287 OA
ATOM      3  C   UNL d   1      40.622 -23.270   5.194  0.00  0.00     0.081 A 
ATOM      4  C   UNL d   1      40.271 -23.123   4.269  0.00  0.00     0.095 A 
ATOM      5  C   UNL d   1      39.896 -24.809   4.143  0.00  0.00     0.090 A 
ATOM      6  C   UNL d   1      40.610 -24.187   5.593  0.00  0.00     0.190 A 
ATOM      7  C   UNL d   1      41.003 -22.479   5.753  0.00  0.00     0.085 A 
ATOM      8  C   UNL d   1      40.247 -24.957   5.068  0.00  0.00     0.094 A 
ATOM      9  C   UNL d   1      40.277 -22.174   3.839  0.00  0.00     0.075 A 
ATOM     10  C   UNL d   1      40.653 -21.368   4.381  0.00  0.00     0.071 A 
ATOM     11  C   UNL d   1      41.019 -21.521   5.343  0.00  0.00     0.074 A 
ENDROOT
BRANCH   5  12
ATOM     12  C   UNL d   1      39.532 -25.579   3.618  0.00  0.00    -0.002 A 
ATOM     13  C   UNL d   1      39.547 -25.553   2.618  0.00  0.00     0.014 A 
ATOM     14  C   UNL d   1      39.184 -26.322   2.093  0.00  0.00     0.001 A 
ATOM     15  C   UNL d   1      38.806 -27.118   2.567  0.00  0.00     0.000 A 
ATOM     16  C   UNL d   1      38.791 -27.144   3.567  0.00  0.00     0.001 A 
ATOM     17  C   UNL d   1      39.155 -26.374   4.092  0.00  0.00     0.014 A 
ENDBRANCH   5  12
BRANCH   7  18
ATOM     18  O   UNL d   1      41.352 -22.638   6.676  0.00  0.00    -0.360 OA
ATOM     19  H   UNL d   1      41.099 -22.341   7.158  0.00  0.00     0.217 HD
ENDBRANCH   7  18
BRANCH  10  20
ATOM     20  O   UNL d   1      40.664 -20.452   3.977  0.00  0.00    -0.361 OA
ATOM     21  H   UNL d   1      40.558 -19.956   4.333  0.00  0.00     0.217 HD
ENDBRANCH  10  20
TORSDOF 3
ENDMDL
MODEL 3
REMARK VINA RESULT:    -7.668     31.725     33.150
REMARK INTER + INTRA:          -7.498
REMARK INTER:                  -8.497
REMARK INTRA:                   0.999
REMARK UNBOUND:                 1.066
REMARK  3 active torsions:
REMARK  status: ('A' for Active; 'I' for Inactive)
REMARK    1  A    between atoms: O_2  and  C_10 
REMARK    2  A    between atoms: O_4  and  C_13 
REMARK    3  A    between atoms: C_7  and  C_9 
ROOT
ATOM      1  O   UNL d   1      11.779 -33.418 -11.022  0.00  0.00    -0.309 OA
ATOM      2  O   UNL d   1      12.476 -35.779 -12.736  0.00  0.00    -0.287 OA
ATOM      3  C   UNL d   1      12.824 -34.177 -12.177  0.00  0.00     0.081 A 
ATOM      4  C   UNL d   1      12.591 -33.390 -11.605  0.00  0.00     0.095 A 
ATOM      5  C   UNL d   1      11.200 -34.233 -11.010  0.00  0.00     0.090 A 
ATOM      6  C   UNL d   1      12.244 -34.992 -12.165  0.00  0.00     0.190 A 
ATOM      7  C   UNL d   1      13.666 -34.163 -12.789  0.00  0.00     0.085 A 
ATOM      8  C   UNL d   1      11.432 -35.020 -11.582  0.00  0.00     0.094 A 
ATOM      9  C   UNL d   1      13.185 -32.534 -11.607  0.00  0.00     0.075 A 
ATOM     10  C   UNL d   1      14.032 -32.498 -12.212  0.00  0.00     0.071 A 
ATOM     11  C   UNL d   1      14.274 -33.317 -12.807  0.00  0.00     0.074 A 
ENDROOT
BRANCH   5  12
ATOM     12  C   UNL d   1      10.388 -34.260 -10.427  0.00  0.00    -0.002 A 
ATOM     13  C   UNL d   1       9.501 -33.978 -10.792  0.00  0.00     0.014 A 
ATOM     14  C   UNL d   1       8.689 -34.006 -10.209  0.00  0.00     0.001 A 
ATOM     15  C   UNL d   1       8.764 -34.316  -9.261  0.00  0.00     0.000 A 
ATOM     16  C   UNL d   1       9.652 -34.598  -8.896  0.00  0.00     0.001 A 
ATOM     17  C   UNL d   1      10.464 -34.570  -9.479  0.00  0.00     0.014 A 
ENDBRANCH   5  12
BRANCH   7  18
ATOM     18  O   UNL d   1      13.888 -34.956 -13.356  0.00  0.00    -0.360 OA
ATOM     19  H   UNL d   1      13.801 -35.528 -13.136  0.00  0.00     0.217 HD
ENDBRANCH   7  18
BRANCH  10  20
ATOM     20  O   UNL d   1      14.609 -31.681 -12.220  0.00  0.00    -0.361 OA
ATOM     21  H   UNL d   1      14.353 -31.120 -12.154  0.00  0.00     0.217 HD
ENDBRANCH  10  20
TORSDOF 3
ENDMDL
MODEL 4
REMARK VINA RESULT:    -7.629     20.229     22.770
REMARK INTER + INTRA:          -7.455
REMARK INTER:                  -8.469
REMARK INTRA:                   1.014
REMARK UNBOUND:                 1.066
REMARK  3 active torsions:
REMARK  status: ('A' for Active; 'I' for Inactive)
REMARK    1  A    between atoms: O_2  and  C_10 
REMARK    2  A    between atoms: O_4  and  C_13 
REMARK    3  A    between atoms: C_7  and  C_9 
ROOT
ATOM      1  O   UNL d   1      25.877 -20.500  15.128  0.00  0.00    -0.309 OA
ATOM      2  O   UNL d   1      28.310 -19.427  16.516  0.00  0.00    -0.287 OA
ATOM      3  C   UNL d   1      26.938 -20.483  16.497  0.00  0.00     0.081 A 
ATOM      4  C   UNL d   1      26.127 -20.841  16.035  0.00  0.00     0.095 A 
ATOM      5  C   UNL d   1      26.438 -19.802  14.685  0.00  0.00     0.090 A 
ATOM      6  C   UNL d   1      27.499 -19.784  16.053  0.00  0.00     0.190 A 
ATOM      7  C   UNL d   1      27.211 -20.829  17.441  0.00  0.00     0.085 A 
ATOM      8  C   UNL d   1      27.249 -19.444  15.147  0.00  0.00     0.094 A 
ATOM      9  C   UNL d   1      25.532 -21.569  16.484  0.00  0.00     0.075 A 
ATOM     10  C   UNL d   1      25.787 -21.929  17.428  0.00  0.00     0.071 A 
ATOM     11  C   UNL d   1      26.631 -21.556  17.909  0.00  0.00     0.074 A 
ENDROOT
BRANCH   5  12
ATOM     12  C   UNL d   1      26.188 -19.461  13.778  0.00  0.00    -0.002 A 
ATOM     13  C   UNL d   1      26.455 -19.971  12.961  0.00  0.00     0.014 A 
ATOM     14  C   UNL d   1      26.205 -19.630  12.055  0.00  0.00     0.001 A 
ATOM     15  C   UNL d   1      25.687 -18.779  11.966  0.00  0.00     0.000 A 
ATOM     16  C   UNL d   1      25.420 -18.269  12.783  0.00  0.00     0.001 A 
ATOM     17  C   UNL d   1      25.670 -18.610  13.690  0.00  0.00     0.014 A 
ENDBRANCH   5  12
BRANCH   7  18
ATOM     18  O   UNL d   1      28.024 -20.463  17.894  0.00  0.00    -0.360 OA
ATOM     19  H   UNL d   1      28.201 -19.879  17.789  0.00  0.00     0.217 HD
ENDBRANCH   7  18
BRANCH  10  20
ATOM     20  O   UNL d   1      25.223 -22.628  17.868  0.00  0.00    -0.361 OA
ATOM     21  H   UNL d   1      24.613 -22.537  17.934  0.00  0.00     0.217 HD
ENDBRANCH  10  20
TORSDOF 3
ENDMDL
MODEL 5
REMARK VINA RESULT:    -7.415     28.005     29.997
REMARK INTER + INTRA:          -7.216
REMARK INTER:                  -8.222
REMARK INTRA:                   1.006
REMARK UNBOUND:                 1.066
REMARK  3 active torsions:
REMARK  status: ('A' for Active; 'I' for Inactive)
REMARK    1  A    between atoms: O_2  and  C_10 
REMARK    2  A    between atoms: O_4  and  C_13 
REMARK    3  A    between atoms: C_7  and  C_9 
ROOT
ATOM      1  O   UNL d   1      40.249 -24.115   3.155  0.00  0.00    -0.309 OA
ATOM      2  O   UNL d   1      39.569 -25.941   5.436  0.00  0.00    -0.287 OA
ATOM      3  C   UNL d   1      39.618 -25.620   3.735  0.00  0.00     0.081 A 
ATOM      4  C   UNL d   1      39.844 -25.012   2.974  0.00  0.00     0.095 A 
ATOM      5  C   UNL d   1      40.427 -23.827   4.096  0.00  0.00     0.090 A 
ATOM      6  C   UNL d   1      39.795 -25.332   4.676  0.00  0.00     0.190 A 
ATOM      7  C   UNL d   1      39.196 -26.556   3.562  0.00  0.00     0.085 A 
ATOM      8  C   UNL d   1      40.200 -24.436   4.856  0.00  0.00     0.094 A 
ATOM      9  C   UNL d   1      39.665 -25.297   1.989  0.00  0.00     0.075 A 
ATOM     10  C   UNL d   1      39.244 -26.229   1.793  0.00  0.00     0.071 A 
ATOM     11  C   UNL d   1      39.007 -26.863   2.584  0.00  0.00     0.074 A 
ENDROOT
BRANCH   5  12
ATOM     12  C   UNL d   1      40.832 -22.931   4.277  0.00  0.00    -0.002 A 
ATOM     13  C   UNL d   1      41.822 -22.807   4.210  0.00  0.00     0.014 A 
ATOM     14  C   UNL d   1      42.227 -21.910   4.391  0.00  0.00     0.001 A 
ATOM     15  C   UNL d   1      41.641 -21.138   4.638  0.00  0.00     0.000 A 
ATOM     16  C   UNL d   1      40.651 -21.262   4.704  0.00  0.00     0.001 A 
ATOM     17  C   UNL d   1      40.247 -22.159   4.524  0.00  0.00     0.014 A 
ENDBRANCH   5  12
BRANCH   7  18
ATOM     18  O   UNL d   1      38.973 -27.157   4.330  0.00  0.00    -0.360 OA
ATOM     19  H   UNL d   1      39.381 -27.583   4.518  0.00  0.00     0.217 HD
ENDBRANCH   7  18
BRANCH  10  20
ATOM     20  O   UNL d   1      39.067 -26.514   0.850  0.00  0.00    -0.361 OA
ATOM     21  H   UNL d   1      39.503 -26.435   0.416  0.00  0.00     0.217 HD
ENDBRANCH  10  20
TORSDOF 3
ENDMDL
