MODEL 1
REMARK VINA RESULT:    -7.909      0.000      0.000
REMARK INTER + INTRA:          -5.148
REMARK INTER:                 -10.405
REMARK INTRA:                   5.258
REMARK UNBOUND:                 5.073
REMARK  6 active torsions:
REMARK  status: ('A' for Active; 'I' for Inactive)
REMARK    1  A    between atoms: O_2  and  C_15 
REMARK    2  A    between atoms: O_3  and  C_17 
REMARK    3  A    between atoms: O_4  and  C_11 
REMARK    4  A    between atoms: O_6  and  C_22 
REMARK    5  A    between atoms: O_7  and  C_20 
REMARK    6  A    between atoms: C_10  and  C_13 
ROOT
ATOM      1  O   UNL d   1     -44.182  42.251 -38.284  0.00  0.00    -0.309 OA
ATOM      2  O   UNL d   1     -41.187  41.714 -37.883  0.00  0.00    -0.287 OA
ATOM      3  C   UNL d   1     -42.742  41.257 -38.592  0.00  0.00     0.084 A 
ATOM      4  C   UNL d   1     -43.718  41.429 -38.725  0.00  0.00     0.096 A 
ATOM      5  C   UNL d   1     -43.621  42.904 -37.697  0.00  0.00     0.090 A 
ATOM      6  C   UNL d   1     -42.311  40.463 -39.021  0.00  0.00     0.119 A 
ATOM      7  C   UNL d   1     -42.162  41.896 -38.009  0.00  0.00     0.190 A 
ATOM      8  C   UNL d   1     -44.263  40.807 -39.287  0.00  0.00     0.078 A 
ATOM      9  C   UNL d   1     -42.856  39.841 -39.583  0.00  0.00     0.136 A 
ATOM     10  C   UNL d   1     -42.603  42.724 -37.559  0.00  0.00     0.094 A 
ATOM     11  C   UNL d   1     -43.832  40.013 -39.717  0.00  0.00     0.107 A 
ENDROOT
BRANCH   5  12
ATOM     12  C   UNL d   1     -44.055  43.696 -37.270  0.00  0.00     0.001 A 
ATOM     13  C   UNL d   1     -43.823  43.946 -36.330  0.00  0.00     0.053 A 
ATOM     14  C   UNL d   1     -44.257  44.739 -35.901  0.00  0.00     0.099 A 
ATOM     15  C   UNL d   1     -44.923  45.281 -36.413  0.00  0.00     0.101 A 
ATOM     16  C   UNL d   1     -45.154  45.031 -37.354  0.00  0.00     0.040 A 
ATOM     17  C   UNL d   1     -44.720  44.239 -37.781  0.00  0.00     0.017 A 
BRANCH  14  18
ATOM     18  O   UNL d   1     -44.026  44.990 -34.961  0.00  0.00    -0.358 OA
ATOM     19  H   UNL d   1     -43.433  45.009 -34.782  0.00  0.00     0.217 HD
ENDBRANCH  14  18
BRANCH  15  20
ATOM     20  O   UNL d   1     -45.357  46.074 -35.986  0.00  0.00    -0.353 OA
ATOM     21  C   UNL d   1     -45.941  46.678 -36.528  0.00  0.00     0.210 C 
ENDBRANCH  15  20
ENDBRANCH   5  12
BRANCH   6  22
ATOM     22  O   UNL d   1     -41.335  40.291 -38.888  0.00  0.00    -0.357 OA
ATOM     23  H   UNL d   1     -40.926  40.750 -38.970  0.00  0.00     0.218 HD
ENDBRANCH   6  22
BRANCH  11  24
ATOM     24  O   UNL d   1     -44.377  39.392 -40.279  0.00  0.00    -0.353 OA
ATOM     25  C   UNL d   1     -45.373  39.481 -40.302  0.00  0.00     0.210 C 
ENDBRANCH  11  24
BRANCH   9  26
ATOM     26  O   UNL d   1     -42.425  39.048 -40.013  0.00  0.00    -0.351 OA
ATOM     27  C   UNL d   1     -42.192  38.247 -39.461  0.00  0.00     0.210 C 
ENDBRANCH   9  26
TORSDOF 6
ENDMDL
MODEL 2
REMARK VINA RESULT:    -7.749     19.724     21.639
REMARK INTER + INTRA:          -4.940
REMARK INTER:                  -9.953
REMARK INTRA:                   5.013
REMARK UNBOUND:                 5.073
REMARK  6 active torsions:
REMARK  status: ('A' for Active; 'I' for Inactive)
REMARK    1  A    between atoms: O_2  and  C_15 
REMARK    2  A    between atoms: O_3  and  C_17 
REMARK    3  A    between atoms: O_4  and  C_11 
REMARK    4  A    between atoms: O_6  and  C_22 
REMARK    5  A    between atoms: O_7  and  C_20 
REMARK    6  A    between atoms: C_10  and  C_13 
ROOT
ATOM      1  O   UNL d   1     -32.932  29.387 -24.922  0.00  0.00    -0.309 OA
ATOM      2  O   UNL d   1     -33.353  32.379 -25.458  0.00  0.00    -0.287 OA
ATOM      3  C   UNL d   1     -33.889  30.868 -24.709  0.00  0.00     0.084 A 
ATOM      4  C   UNL d   1     -33.755  29.893 -24.532  0.00  0.00     0.096 A 
ATOM      5  C   UNL d   1     -32.240  29.904 -25.504  0.00  0.00     0.090 A 
ATOM      6  C   UNL d   1     -34.683  31.341 -24.328  0.00  0.00     0.119 A 
ATOM      7  C   UNL d   1     -33.209  31.404 -25.288  0.00  0.00     0.190 A 
ATOM      8  C   UNL d   1     -34.416  29.391 -23.974  0.00  0.00     0.078 A 
ATOM      9  C   UNL d   1     -35.344  30.839 -23.770  0.00  0.00     0.136 A 
ATOM     10  C   UNL d   1     -32.380  30.920 -25.688  0.00  0.00     0.094 A 
ATOM     11  C   UNL d   1     -35.210  29.864 -23.593  0.00  0.00     0.107 A 
ENDROOT
BRANCH   5  12
ATOM     12  C   UNL d   1     -31.447  29.428 -25.884  0.00  0.00     0.001 A 
ATOM     13  C   UNL d   1     -30.624  29.308 -25.329  0.00  0.00     0.053 A 
ATOM     14  C   UNL d   1     -29.830  28.832 -25.708  0.00  0.00     0.099 A 
ATOM     15  C   UNL d   1     -29.860  28.476 -26.643  0.00  0.00     0.101 A 
ATOM     16  C   UNL d   1     -30.683  28.596 -27.197  0.00  0.00     0.040 A 
ATOM     17  C   UNL d   1     -31.476  29.072 -26.818  0.00  0.00     0.017 A 
BRANCH  14  18
ATOM     18  O   UNL d   1     -29.006  28.711 -25.154  0.00  0.00    -0.358 OA
ATOM     19  H   UNL d   1     -29.008  28.316 -24.678  0.00  0.00     0.217 HD
ENDBRANCH  14  18
BRANCH  15  20
ATOM     20  O   UNL d   1     -29.067  28.001 -27.022  0.00  0.00    -0.353 OA
ATOM     21  C   UNL d   1     -29.113  27.603 -27.938  0.00  0.00     0.210 C 
ENDBRANCH  15  20
ENDBRANCH   5  12
BRANCH   6  22
ATOM     22  O   UNL d   1     -34.817  32.316 -24.504  0.00  0.00    -0.357 OA
ATOM     23  H   UNL d   1     -34.332  32.676 -24.644  0.00  0.00     0.218 HD
ENDBRANCH   6  22
BRANCH  11  24
ATOM     24  O   UNL d   1     -35.871  29.361 -23.035  0.00  0.00    -0.353 OA
ATOM     25  C   UNL d   1     -35.896  28.362 -23.069  0.00  0.00     0.210 C 
ENDBRANCH  11  24
BRANCH   9  26
ATOM     26  O   UNL d   1     -36.138  31.312 -23.388  0.00  0.00    -0.351 OA
ATOM     27  C   UNL d   1     -36.032  31.902 -22.588  0.00  0.00     0.210 C 
ENDBRANCH   9  26
TORSDOF 6
ENDMDL
MODEL 3
REMARK VINA RESULT:    -7.711      1.801      6.442
REMARK INTER + INTRA:          -4.891
REMARK INTER:                  -9.919
REMARK INTRA:                   5.028
REMARK UNBOUND:                 5.073
REMARK  6 active torsions:
REMARK  status: ('A' for Active; 'I' for Inactive)
REMARK    1  A    between atoms: O_2  and  C_15 
REMARK    2  A    between atoms: O_3  and  C_17 
REMARK    3  A    between atoms: O_4  and  C_11 
REMARK    4  A    between atoms: O_6  and  C_22 
REMARK    5  A    between atoms: O_7  and  C_20 
REMARK    6  A    between atoms: C_10  and  C_13 
ROOT
ATOM      1  O   UNL d   1     -42.986  39.511 -39.583  0.00  0.00    -0.309 OA
ATOM      2  O   UNL d   1     -40.755  40.787 -37.904  0.00  0.00    -0.287 OA
ATOM      3  C   UNL d   1     -42.371  40.872 -38.620  0.00  0.00     0.084 A 
ATOM      4  C   UNL d   1     -43.100  40.459 -39.166  0.00  0.00     0.096 A 
ATOM      5  C   UNL d   1     -42.100  38.986 -39.428  0.00  0.00     0.090 A 
ATOM      6  C   UNL d   1     -42.496  41.782 -38.226  0.00  0.00     0.119 A 
ATOM      7  C   UNL d   1     -41.478  40.364 -38.452  0.00  0.00     0.190 A 
ATOM      8  C   UNL d   1     -43.954  40.958 -39.319  0.00  0.00     0.078 A 
ATOM      9  C   UNL d   1     -43.349  42.281 -38.379  0.00  0.00     0.136 A 
ATOM     10  C   UNL d   1     -41.340  39.416 -38.859  0.00  0.00     0.094 A 
ATOM     11  C   UNL d   1     -44.078  41.868 -38.926  0.00  0.00     0.107 A 
ENDROOT
BRANCH   5  12
ATOM     12  C   UNL d   1     -41.978  38.075 -39.823  0.00  0.00     0.001 A 
ATOM     13  C   UNL d   1     -42.281  37.267 -39.318  0.00  0.00     0.053 A 
ATOM     14  C   UNL d   1     -42.160  36.356 -39.712  0.00  0.00     0.099 A 
ATOM     15  C   UNL d   1     -41.737  36.254 -40.612  0.00  0.00     0.101 A 
ATOM     16  C   UNL d   1     -41.434  37.062 -41.118  0.00  0.00     0.040 A 
ATOM     17  C   UNL d   1     -41.555  37.972 -40.723  0.00  0.00     0.017 A 
BRANCH  14  18
ATOM     18  O   UNL d   1     -42.463  35.547 -39.208  0.00  0.00    -0.358 OA
ATOM     19  H   UNL d   1     -42.458  35.548 -38.588  0.00  0.00     0.217 HD
ENDBRANCH  14  18
BRANCH  15  20
ATOM     20  O   UNL d   1     -41.615  35.343 -41.007  0.00  0.00    -0.353 OA
ATOM     21  C   UNL d   1     -41.179  35.239 -41.901  0.00  0.00     0.210 C 
ENDBRANCH  15  20
ENDBRANCH   5  12
BRANCH   6  22
ATOM     22  O   UNL d   1     -41.767  42.195 -37.680  0.00  0.00    -0.357 OA
ATOM     23  H   UNL d   1     -41.175  42.046 -37.790  0.00  0.00     0.218 HD
ENDBRANCH   6  22
BRANCH  11  24
ATOM     24  O   UNL d   1     -44.931  42.367 -39.079  0.00  0.00    -0.353 OA
ATOM     25  C   UNL d   1     -45.531  42.111 -39.837  0.00  0.00     0.210 C 
ENDBRANCH  11  24
BRANCH   9  26
ATOM     26  O   UNL d   1     -43.474  43.192 -37.986  0.00  0.00    -0.351 OA
ATOM     27  C   UNL d   1     -43.656  43.293 -37.008  0.00  0.00     0.210 C 
ENDBRANCH   9  26
TORSDOF 6
ENDMDL
MODEL 4
REMARK VINA RESULT:    -7.696     19.459     20.839
REMARK INTER + INTRA:          -4.872
REMARK INTER:                  -9.954
REMARK INTRA:                   5.082
REMARK UNBOUND:                 5.073
REMARK  6 active torsions:
REMARK  status: ('A' for Active; 'I' for Inactive)
REMARK    1  A    between atoms: O_2  and  C_15 
REMARK    2  A    between atoms: O_3  and  C_17 
REMARK    3  A    between atoms: O_4  and  C_11 
REMARK    4  A    between atoms: O_6  and  C_22 
REMARK    5  A    between atoms: O_7  and  C_20 
REMARK    6  A    between atoms: C_10  and  C_13 
ROOT
ATOM      1  O   UNL d   1     -32.835  29.339 -26.283  0.00  0.00    -0.309 OA
ATOM      2  O   UNL d   1     -30.004  30.397 -25.745  0.00  0.00    -0.287 OA
ATOM      3  C   UNL d   1     -31.098  29.345 -26.656  0.00  0.00     0.084 A 
ATOM      4  C   UNL d   1     -32.019  28.998 -26.834  0.00  0.00     0.096 A 
ATOM      5  C   UNL d   1     -32.689  30.051 -25.536  0.00  0.00     0.090 A 
ATOM      6  C   UNL d   1     -30.324  29.008 -27.193  0.00  0.00     0.119 A 
ATOM      7  C   UNL d   1     -30.929  30.057 -25.915  0.00  0.00     0.190 A 
ATOM      8  C   UNL d   1     -32.166  28.315 -27.548  0.00  0.00     0.078 A 
ATOM      9  C   UNL d   1     -30.472  28.325 -27.907  0.00  0.00     0.136 A 
ATOM     10  C   UNL d   1     -31.729  30.413 -25.351  0.00  0.00     0.094 A 
ATOM     11  C   UNL d   1     -31.393  27.978 -28.085  0.00  0.00     0.107 A 
ENDROOT
BRANCH   5  12
ATOM     12  C   UNL d   1     -33.464  30.386 -25.001  0.00  0.00     0.001 A 
ATOM     13  C   UNL d   1     -33.784  31.326 -25.119  0.00  0.00     0.053 A 
ATOM     14  C   UNL d   1     -34.560  31.662 -24.584  0.00  0.00     0.099 A 
ATOM     15  C   UNL d   1     -35.016  31.056 -23.932  0.00  0.00     0.101 A 
ATOM     16  C   UNL d   1     -34.696  30.115 -23.814  0.00  0.00     0.040 A 
ATOM     17  C   UNL d   1     -33.921  29.781 -24.349  0.00  0.00     0.017 A 
BRANCH  14  18
ATOM     18  O   UNL d   1     -34.880  32.602 -24.700  0.00  0.00    -0.358 OA
ATOM     19  H   UNL d   1     -35.483  32.733 -24.648  0.00  0.00     0.217 HD
ENDBRANCH  14  18
BRANCH  15  20
ATOM     20  O   UNL d   1     -35.791  31.390 -23.397  0.00  0.00    -0.353 OA
ATOM     21  C   UNL d   1     -36.149  30.845 -22.639  0.00  0.00     0.210 C 
ENDBRANCH  15  20
ENDBRANCH   5  12
BRANCH   6  22
ATOM     22  O   UNL d   1     -29.403  29.355 -27.015  0.00  0.00    -0.357 OA
ATOM     23  H   UNL d   1     -29.205  29.869 -27.300  0.00  0.00     0.218 HD
ENDBRANCH   6  22
BRANCH  11  24
ATOM     24  O   UNL d   1     -31.540  27.294 -28.800  0.00  0.00    -0.353 OA
ATOM     25  C   UNL d   1     -32.425  26.835 -28.878  0.00  0.00     0.210 C 
ENDBRANCH  11  24
BRANCH   9  26
ATOM     26  O   UNL d   1     -29.698  27.988 -28.444  0.00  0.00    -0.351 OA
ATOM     27  C   UNL d   1     -29.064  27.326 -28.046  0.00  0.00     0.210 C 
ENDBRANCH   9  26
TORSDOF 6
ENDMDL
MODEL 5
REMARK VINA RESULT:    -7.686     39.250     40.964
REMARK INTER + INTRA:          -4.859
REMARK INTER:                  -9.968
REMARK INTRA:                   5.109
REMARK UNBOUND:                 5.073
REMARK  6 active torsions:
REMARK  status: ('A' for Active; 'I' for Inactive)
REMARK    1  A    between atoms: O_2  and  C_15 
REMARK    2  A    between atoms: O_3  and  C_17 
REMARK    3  A    between atoms: O_4  and  C_11 
REMARK    4  A    between atoms: O_6  and  C_22 
REMARK    5  A    between atoms: O_7  and  C_20 
REMARK    6  A    between atoms: C_10  and  C_13 
ROOT
ATOM      1  O   UNL d   1     -10.576  32.007 -16.026  0.00  0.00    -0.309 OA
ATOM      2  O   UNL d   1     -11.703  32.900 -18.737  0.00  0.00    -0.287 OA
ATOM      3  C   UNL d   1     -11.951  32.187 -17.137  0.00  0.00     0.084 A 
ATOM      4  C   UNL d   1     -11.587  31.895 -16.252  0.00  0.00     0.096 A 
ATOM      5  C   UNL d   1      -9.936  32.428 -16.731  0.00  0.00     0.090 A 
ATOM      6  C   UNL d   1     -12.923  32.073 -17.340  0.00  0.00     0.119 A 
ATOM      7  C   UNL d   1     -11.329  32.611 -17.856  0.00  0.00     0.190 A 
ATOM      8  C   UNL d   1     -12.196  31.489 -15.570  0.00  0.00     0.078 A 
ATOM      9  C   UNL d   1     -13.532  31.668 -16.658  0.00  0.00     0.136 A 
ATOM     10  C   UNL d   1     -10.315  32.733 -17.652  0.00  0.00     0.094 A 
ATOM     11  C   UNL d   1     -13.169  31.375 -15.773  0.00  0.00     0.107 A 
ENDROOT
BRANCH   5  12
ATOM     12  C   UNL d   1      -8.964  32.541 -16.525  0.00  0.00     0.001 A 
ATOM     13  C   UNL d   1      -8.279  32.058 -17.070  0.00  0.00     0.053 A 
ATOM     14  C   UNL d   1      -7.306  32.170 -16.864  0.00  0.00     0.099 A 
ATOM     15  C   UNL d   1      -7.020  32.764 -16.113  0.00  0.00     0.101 A 
ATOM     16  C   UNL d   1      -7.705  33.247 -15.567  0.00  0.00     0.040 A 
ATOM     17  C   UNL d   1      -8.677  33.135 -15.773  0.00  0.00     0.017 A 
BRANCH  14  18
ATOM     18  O   UNL d   1      -6.620  31.688 -17.409  0.00  0.00    -0.358 OA
ATOM     19  H   UNL d   1      -6.758  31.144 -17.671  0.00  0.00     0.217 HD
ENDBRANCH  14  18
BRANCH  15  20
ATOM     20  O   UNL d   1      -6.048  32.877 -15.906  0.00  0.00    -0.353 OA
ATOM     21  C   UNL d   1      -5.760  33.168 -14.994  0.00  0.00     0.210 C 
ENDBRANCH  15  20
ENDBRANCH   5  12
BRANCH   6  22
ATOM     22  O   UNL d   1     -13.287  32.366 -18.224  0.00  0.00    -0.357 OA
ATOM     23  H   UNL d   1     -13.816  32.687 -18.251  0.00  0.00     0.218 HD
ENDBRANCH   6  22
BRANCH  11  24
ATOM     24  O   UNL d   1     -13.777  30.970 -15.092  0.00  0.00    -0.353 OA
ATOM     25  C   UNL d   1     -13.479  30.887 -14.141  0.00  0.00     0.210 C 
ENDBRANCH  11  24
BRANCH   9  26
ATOM     26  O   UNL d   1     -14.505  31.554 -16.861  0.00  0.00    -0.351 OA
ATOM     27  C   UNL d   1     -14.817  30.762 -17.385  0.00  0.00     0.210 C 
ENDBRANCH   9  26
TORSDOF 6
ENDMDL
