MODEL 1
REMARK VINA RESULT:    -8.415      0.000      0.000
REMARK INTER + INTRA:          -8.284
REMARK INTER:                 -10.187
REMARK INTRA:                   1.903
REMARK UNBOUND:                 1.852
REMARK  5 active torsions:
REMARK  status: ('A' for Active; 'I' for Inactive)
REMARK    1  A    between atoms: O_2  and  C_13 
REMARK    2  A    between atoms: O_3  and  C_19 
REMARK    3  A    between atoms: O_5  and  C_17 
REMARK    4  A    between atoms: O_6  and  C_21 
REMARK    5  A    between atoms: C_8  and  C_10 
ROOT
ATOM      1  O   UNL d   1     -19.993  24.861 -36.262  0.00  0.00    -0.309 OA
ATOM      2  O   UNL d   1     -19.451  22.740 -38.314  0.00  0.00    -0.287 OA
ATOM      3  C   UNL d   1     -20.314  24.155 -37.811  0.00  0.00     0.081 A 
ATOM      4  C   UNL d   1     -19.311  24.153 -36.081  0.00  0.00     0.090 A 
ATOM      5  C   UNL d   1     -20.495  24.862 -37.127  0.00  0.00     0.095 A 
ATOM      6  C   UNL d   1     -19.632  23.447 -37.630  0.00  0.00     0.190 A 
ATOM      7  C   UNL d   1     -19.130  23.446 -36.765  0.00  0.00     0.094 A 
ATOM      8  C   UNL d   1     -20.829  24.143 -38.716  0.00  0.00     0.085 A 
ATOM      9  C   UNL d   1     -21.204  25.606 -37.301  0.00  0.00     0.075 A 
ATOM     10  C   UNL d   1     -21.730  25.613 -38.200  0.00  0.00     0.071 A 
ATOM     11  C   UNL d   1     -21.542  24.877 -38.912  0.00  0.00     0.074 A 
ENDROOT
BRANCH   4  12
ATOM     12  C   UNL d   1     -18.809  24.152 -35.216  0.00  0.00     0.001 A 
ATOM     13  C   UNL d   1     -18.889  23.375 -34.592  0.00  0.00     0.054 A 
ATOM     14  C   UNL d   1     -18.387  23.374 -33.727  0.00  0.00     0.102 A 
ATOM     15  C   UNL d   1     -17.805  24.150 -33.486  0.00  0.00     0.099 A 
ATOM     16  C   UNL d   1     -17.725  24.927 -34.110  0.00  0.00     0.040 A 
ATOM     17  C   UNL d   1     -18.226  24.928 -34.975  0.00  0.00     0.017 A 
BRANCH  14  18
ATOM     18  O   UNL d   1     -18.468  22.596 -33.103  0.00  0.00    -0.353 OA
ATOM     19  C   UNL d   1     -19.156  21.890 -33.271  0.00  0.00     0.210 C 
ENDBRANCH  14  18
BRANCH  15  20
ATOM     20  O   UNL d   1     -17.303  24.149 -32.622  0.00  0.00    -0.358 OA
ATOM     21  H   UNL d   1     -16.764  24.452 -32.575  0.00  0.00     0.217 HD
ENDBRANCH  15  20
ENDBRANCH   4  12
BRANCH   8  22
ATOM     22  O   UNL d   1     -20.640  23.431 -39.393  0.00  0.00    -0.360 OA
ATOM     23  H   UNL d   1     -21.022  23.353 -39.874  0.00  0.00     0.217 HD
ENDBRANCH   8  22
BRANCH  10  24
ATOM     24  O   UNL d   1     -22.412  26.323 -38.377  0.00  0.00    -0.361 OA
ATOM     25  H   UNL d   1     -22.303  26.907 -38.202  0.00  0.00     0.217 HD
ENDBRANCH  10  24
TORSDOF 5
ENDMDL
MODEL 2
REMARK VINA RESULT:    -8.234      2.303      4.984
REMARK INTER + INTRA:          -8.066
REMARK INTER:                  -9.980
REMARK INTRA:                   1.914
REMARK UNBOUND:                 1.852
REMARK  5 active torsions:
REMARK  status: ('A' for Active; 'I' for Inactive)
REMARK    1  A    between atoms: O_2  and  C_13 
REMARK    2  A    between atoms: O_3  and  C_19 
REMARK    3  A    between atoms: O_5  and  C_17 
REMARK    4  A    between atoms: O_6  and  C_21 
REMARK    5  A    between atoms: C_8  and  C_10 
ROOT
ATOM      1  O   UNL d   1     -21.805  24.994 -35.994  0.00  0.00    -0.309 OA
ATOM      2  O   UNL d   1     -19.205  25.957 -34.848  0.00  0.00    -0.287 OA
ATOM      3  C   UNL d   1     -20.888  25.597 -34.654  0.00  0.00     0.081 A 
ATOM      4  C   UNL d   1     -20.989  25.033 -36.570  0.00  0.00     0.090 A 
ATOM      5  C   UNL d   1     -21.755  25.276 -35.036  0.00  0.00     0.095 A 
ATOM      6  C   UNL d   1     -20.071  25.636 -35.230  0.00  0.00     0.190 A 
ATOM      7  C   UNL d   1     -20.122  25.354 -36.188  0.00  0.00     0.094 A 
ATOM      8  C   UNL d   1     -20.821  25.894 -33.658  0.00  0.00     0.085 A 
ATOM      9  C   UNL d   1     -22.614  25.230 -34.448  0.00  0.00     0.075 A 
ATOM     10  C   UNL d   1     -22.569  25.523 -33.449  0.00  0.00     0.071 A 
ATOM     11  C   UNL d   1     -21.667  25.857 -33.052  0.00  0.00     0.074 A 
ENDROOT
BRANCH   4  12
ATOM     12  C   UNL d   1     -21.039  24.751 -37.528  0.00  0.00     0.001 A 
ATOM     13  C   UNL d   1     -20.493  23.978 -37.851  0.00  0.00     0.054 A 
ATOM     14  C   UNL d   1     -20.543  23.695 -38.809  0.00  0.00     0.102 A 
ATOM     15  C   UNL d   1     -21.140  24.187 -39.444  0.00  0.00     0.099 A 
ATOM     16  C   UNL d   1     -21.685  24.960 -39.121  0.00  0.00     0.040 A 
ATOM     17  C   UNL d   1     -21.635  25.242 -38.163  0.00  0.00     0.017 A 
BRANCH  14  18
ATOM     18  O   UNL d   1     -19.998  22.922 -39.132  0.00  0.00    -0.353 OA
ATOM     19  C   UNL d   1     -19.189  22.633 -38.620  0.00  0.00     0.210 C 
ENDBRANCH  14  18
BRANCH  15  20
ATOM     20  O   UNL d   1     -21.190  23.904 -40.402  0.00  0.00    -0.358 OA
ATOM     21  H   UNL d   1     -20.684  23.689 -40.689  0.00  0.00     0.217 HD
ENDBRANCH  15  20
ENDBRANCH   4  12
BRANCH   8  22
ATOM     22  O   UNL d   1     -19.948  26.213 -33.287  0.00  0.00    -0.360 OA
ATOM     23  H   UNL d   1     -19.668  26.706 -33.536  0.00  0.00     0.217 HD
ENDBRANCH   8  22
BRANCH  10  24
ATOM     24  O   UNL d   1     -23.388  25.482 -32.876  0.00  0.00    -0.361 OA
ATOM     25  H   UNL d   1     -23.428  25.835 -32.368  0.00  0.00     0.217 HD
ENDBRANCH  10  24
TORSDOF 5
ENDMDL
MODEL 3
REMARK VINA RESULT:    -8.069     25.362     27.475
REMARK INTER + INTRA:          -7.868
REMARK INTER:                  -9.748
REMARK INTRA:                   1.880
REMARK UNBOUND:                 1.852
REMARK  5 active torsions:
REMARK  status: ('A' for Active; 'I' for Inactive)
REMARK    1  A    between atoms: O_2  and  C_13 
REMARK    2  A    between atoms: O_3  and  C_19 
REMARK    3  A    between atoms: O_5  and  C_17 
REMARK    4  A    between atoms: O_6  and  C_21 
REMARK    5  A    between atoms: C_8  and  C_10 
ROOT
ATOM      1  O   UNL d   1     -42.209  38.419 -37.639  0.00  0.00    -0.309 OA
ATOM      2  O   UNL d   1     -42.252  37.110 -40.338  0.00  0.00    -0.287 OA
ATOM      3  C   UNL d   1     -42.212  36.985 -38.611  0.00  0.00     0.081 A 
ATOM      4  C   UNL d   1     -42.234  38.980 -38.467  0.00  0.00     0.090 A 
ATOM      5  C   UNL d   1     -42.198  37.422 -37.711  0.00  0.00     0.095 A 
ATOM      6  C   UNL d   1     -42.238  37.546 -39.439  0.00  0.00     0.190 A 
ATOM      7  C   UNL d   1     -42.249  38.544 -39.366  0.00  0.00     0.094 A 
ATOM      8  C   UNL d   1     -42.201  35.948 -38.702  0.00  0.00     0.085 A 
ATOM      9  C   UNL d   1     -42.171  36.851 -36.840  0.00  0.00     0.075 A 
ATOM     10  C   UNL d   1     -42.160  35.812 -36.908  0.00  0.00     0.071 A 
ATOM     11  C   UNL d   1     -42.175  35.357 -37.844  0.00  0.00     0.074 A 
ENDROOT
BRANCH   4  12
ATOM     12  C   UNL d   1     -42.245  39.977 -38.394  0.00  0.00     0.001 A 
ATOM     13  C   UNL d   1     -43.079  40.485 -38.612  0.00  0.00     0.054 A 
ATOM     14  C   UNL d   1     -43.090  41.483 -38.540  0.00  0.00     0.102 A 
ATOM     15  C   UNL d   1     -42.267  41.972 -38.250  0.00  0.00     0.099 A 
ATOM     16  C   UNL d   1     -41.434  41.464 -38.032  0.00  0.00     0.040 A 
ATOM     17  C   UNL d   1     -41.423  40.467 -38.104  0.00  0.00     0.017 A 
BRANCH  14  18
ATOM     18  O   UNL d   1     -43.923  41.991 -38.758  0.00  0.00    -0.353 OA
ATOM     19  C   UNL d   1     -44.585  41.611 -39.404  0.00  0.00     0.210 C 
ENDBRANCH  14  18
BRANCH  15  20
ATOM     20  O   UNL d   1     -42.278  42.969 -38.177  0.00  0.00    -0.358 OA
ATOM     21  H   UNL d   1     -42.799  43.263 -38.013  0.00  0.00     0.217 HD
ENDBRANCH  15  20
ENDBRANCH   4  12
BRANCH   8  22
ATOM     22  O   UNL d   1     -42.216  35.523 -39.607  0.00  0.00    -0.360 OA
ATOM     23  H   UNL d   1     -41.710  35.240 -39.824  0.00  0.00     0.217 HD
ENDBRANCH   8  22
BRANCH  10  24
ATOM     24  O   UNL d   1     -42.134  35.254 -36.078  0.00  0.00    -0.361 OA
ATOM     25  H   UNL d   1     -41.937  35.501 -35.545  0.00  0.00     0.217 HD
ENDBRANCH  10  24
TORSDOF 5
ENDMDL
MODEL 4
REMARK VINA RESULT:    -7.949     16.090     17.098
REMARK INTER + INTRA:          -7.723
REMARK INTER:                  -9.569
REMARK INTRA:                   1.846
REMARK UNBOUND:                 1.852
REMARK  5 active torsions:
REMARK  status: ('A' for Active; 'I' for Inactive)
REMARK    1  A    between atoms: O_2  and  C_13 
REMARK    2  A    between atoms: O_3  and  C_19 
REMARK    3  A    between atoms: O_5  and  C_17 
REMARK    4  A    between atoms: O_6  and  C_21 
REMARK    5  A    between atoms: C_8  and  C_10 
ROOT
ATOM      1  O   UNL d   1     -31.802  29.282 -26.747  0.00  0.00    -0.309 OA
ATOM      2  O   UNL d   1     -29.377  28.786 -25.052  0.00  0.00    -0.287 OA
ATOM      3  C   UNL d   1     -30.207  28.632 -26.564  0.00  0.00     0.081 A 
ATOM      4  C   UNL d   1     -31.781  29.601 -25.799  0.00  0.00     0.090 A 
ATOM      5  C   UNL d   1     -31.016  28.797 -27.129  0.00  0.00     0.095 A 
ATOM      6  C   UNL d   1     -30.185  28.951 -25.617  0.00  0.00     0.190 A 
ATOM      7  C   UNL d   1     -30.972  29.435 -25.234  0.00  0.00     0.094 A 
ATOM      8  C   UNL d   1     -29.381  28.129 -26.949  0.00  0.00     0.085 A 
ATOM      9  C   UNL d   1     -31.053  28.471 -28.118  0.00  0.00     0.075 A 
ATOM     10  C   UNL d   1     -30.238  27.965 -28.523  0.00  0.00     0.071 A 
ATOM     11  C   UNL d   1     -29.396  27.793 -27.935  0.00  0.00     0.074 A 
ENDROOT
BRANCH   4  12
ATOM     12  C   UNL d   1     -32.567  30.085 -25.417  0.00  0.00     0.001 A 
ATOM     13  C   UNL d   1     -33.208  29.604 -24.818  0.00  0.00     0.054 A 
ATOM     14  C   UNL d   1     -33.995  30.089 -24.436  0.00  0.00     0.102 A 
ATOM     15  C   UNL d   1     -34.141  31.054 -24.651  0.00  0.00     0.099 A 
ATOM     16  C   UNL d   1     -33.500  31.535 -25.250  0.00  0.00     0.040 A 
ATOM     17  C   UNL d   1     -32.713  31.051 -25.632  0.00  0.00     0.017 A 
BRANCH  14  18
ATOM     18  O   UNL d   1     -34.635  29.608 -23.837  0.00  0.00    -0.353 OA
ATOM     19  C   UNL d   1     -34.673  28.608 -23.845  0.00  0.00     0.210 C 
ENDBRANCH  14  18
BRANCH  15  20
ATOM     20  O   UNL d   1     -34.927  31.539 -24.269  0.00  0.00    -0.358 OA
ATOM     21  H   UNL d   1     -35.132  32.059 -24.537  0.00  0.00     0.217 HD
ENDBRANCH  15  20
ENDBRANCH   4  12
BRANCH   8  22
ATOM     22  O   UNL d   1     -28.577  27.969 -26.375  0.00  0.00    -0.360 OA
ATOM     23  H   UNL d   1     -28.432  27.393 -26.200  0.00  0.00     0.217 HD
ENDBRANCH   8  22
BRANCH  10  24
ATOM     24  O   UNL d   1     -30.264  27.648 -29.472  0.00  0.00    -0.361 OA
ATOM     25  H   UNL d   1     -29.934  27.151 -29.641  0.00  0.00     0.217 HD
ENDBRANCH  10  24
TORSDOF 5
ENDMDL
MODEL 5
REMARK VINA RESULT:    -7.941     15.667     16.557
REMARK INTER + INTRA:          -7.714
REMARK INTER:                  -9.559
REMARK INTRA:                   1.846
REMARK UNBOUND:                 1.852
REMARK  5 active torsions:
REMARK  status: ('A' for Active; 'I' for Inactive)
REMARK    1  A    between atoms: O_2  and  C_13 
REMARK    2  A    between atoms: O_3  and  C_19 
REMARK    3  A    between atoms: O_5  and  C_17 
REMARK    4  A    between atoms: O_6  and  C_21 
REMARK    5  A    between atoms: C_8  and  C_10 
ROOT
ATOM      1  O   UNL d   1     -31.014  28.869 -24.824  0.00  0.00    -0.309 OA
ATOM      2  O   UNL d   1     -30.573  31.782 -25.390  0.00  0.00    -0.287 OA
ATOM      3  C   UNL d   1     -31.645  30.468 -25.041  0.00  0.00     0.081 A 
ATOM      4  C   UNL d   1     -30.089  29.213 -24.985  0.00  0.00     0.090 A 
ATOM      5  C   UNL d   1     -31.793  29.497 -24.852  0.00  0.00     0.095 A 
ATOM      6  C   UNL d   1     -30.720  30.811 -25.202  0.00  0.00     0.190 A 
ATOM      7  C   UNL d   1     -29.942  30.184 -25.174  0.00  0.00     0.094 A 
ATOM      8  C   UNL d   1     -32.446  31.133 -25.073  0.00  0.00     0.085 A 
ATOM      9  C   UNL d   1     -32.751  29.124 -24.683  0.00  0.00     0.075 A 
ATOM     10  C   UNL d   1     -33.566  29.771 -24.711  0.00  0.00     0.071 A 
ATOM     11  C   UNL d   1     -33.413  30.782 -24.907  0.00  0.00     0.074 A 
ENDROOT
BRANCH   4  12
ATOM     12  C   UNL d   1     -29.311  28.585 -24.957  0.00  0.00     0.001 A 
ATOM     13  C   UNL d   1     -29.144  27.961 -25.720  0.00  0.00     0.054 A 
ATOM     14  C   UNL d   1     -28.366  27.334 -25.692  0.00  0.00     0.102 A 
ATOM     15  C   UNL d   1     -27.755  27.330 -24.901  0.00  0.00     0.099 A 
ATOM     16  C   UNL d   1     -27.922  27.954 -24.137  0.00  0.00     0.040 A 
ATOM     17  C   UNL d   1     -28.700  28.581 -24.165  0.00  0.00     0.017 A 
BRANCH  14  18
ATOM     18  O   UNL d   1     -28.199  26.710 -26.456  0.00  0.00    -0.353 OA
ATOM     19  C   UNL d   1     -28.739  26.789 -27.294  0.00  0.00     0.210 C 
ENDBRANCH  14  18
BRANCH  15  20
ATOM     20  O   UNL d   1     -26.977  26.703 -24.873  0.00  0.00    -0.358 OA
ATOM     21  H   UNL d   1     -26.895  26.332 -24.382  0.00  0.00     0.217 HD
ENDBRANCH  15  20
ENDBRANCH   4  12
BRANCH   8  22
ATOM     22  O   UNL d   1     -32.287  32.102 -25.263  0.00  0.00    -0.360 OA
ATOM     23  H   UNL d   1     -31.990  32.271 -25.779  0.00  0.00     0.217 HD
ENDBRANCH   8  22
BRANCH  10  24
ATOM     24  O   UNL d   1     -34.490  29.424 -24.549  0.00  0.00    -0.361 OA
ATOM     25  H   UNL d   1     -34.577  28.822 -24.429  0.00  0.00     0.217 HD
ENDBRANCH  10  24
TORSDOF 5
ENDMDL
