MODEL 1
REMARK VINA RESULT:   -10.213      0.000      0.000
REMARK INTER + INTRA:          -8.416
REMARK INTER:                 -11.395
REMARK INTRA:                   2.979
REMARK UNBOUND:                 2.991
REMARK  2 active torsions:
REMARK  status: ('A' for Active; 'I' for Inactive)
REMARK    1  A    between atoms: O_3  and  C_17 
REMARK    2  A    between atoms: O_4  and  C_21 
ROOT
ATOM      1  O   UNL d   1     -28.071  18.957  23.931  0.00  0.00    -0.323 OA
ATOM      2  O   UNL d   1     -28.808  20.239  23.140  0.00  0.00    -0.323 OA
ATOM      3  N   UNL d   1     -30.799  16.309  21.466  0.00  0.00    -0.400 N 
ATOM      4  C   UNL d   1     -30.085  16.484  22.144  0.00  0.00     0.117 A 
ATOM      5  C   UNL d   1     -29.618  15.699  22.644  0.00  0.00     0.069 A 
ATOM      6  C   UNL d   1     -29.810  17.424  22.350  0.00  0.00    -0.026 A 
ATOM      7  C   UNL d   1     -31.238  17.074  20.994  0.00  0.00     0.122 A 
ATOM      8  C   UNL d   1     -31.095  15.337  21.241  0.00  0.00     0.160 A 
ATOM      9  C   UNL d   1     -30.964  18.013  21.200  0.00  0.00     0.058 A 
ATOM     10  C   UNL d   1     -30.250  18.188  21.878  0.00  0.00    -0.045 A 
ATOM     11  C   UNL d   1     -29.898  14.718  22.434  0.00  0.00    -0.045 A 
ATOM     12  C   UNL d   1     -30.642  14.536  21.729  0.00  0.00     0.002 A 
ATOM     13  C   UNL d   1     -29.065  17.590  23.058  0.00  0.00     0.049 A 
ATOM     14  C   UNL d   1     -29.974  19.172  22.082  0.00  0.00     0.047 A 
ATOM     15  C   UNL d   1     -30.951  13.522  21.494  0.00  0.00     0.110 A 
ATOM     16  C   UNL d   1     -29.412  13.899  22.955  0.00  0.00     0.011 A 
ATOM     17  C   UNL d   1     -28.773  18.566  23.278  0.00  0.00     0.105 A 
ATOM     18  C   UNL d   1     -29.231  19.362  22.787  0.00  0.00     0.105 A 
ATOM     19  C   UNL d   1     -30.479  12.688  22.002  0.00  0.00     0.102 A 
ATOM     20  C   UNL d   1     -29.704  12.877  22.737  0.00  0.00     0.040 A 
ATOM     21  C   UNL d   1     -28.093  19.989  23.845  0.00  0.00     0.352 A 
ENDROOT
BRANCH  15  22
ATOM     22  O   UNL d   1     -31.666  13.358  20.814  0.00  0.00    -0.352 OA
ATOM     23  C   UNL d   1     -32.628  13.372  21.087  0.00  0.00     0.210 C 
ENDBRANCH  15  22
BRANCH  19  24
ATOM     24  O   UNL d   1     -30.756  11.750  21.793  0.00  0.00    -0.353 OA
ATOM     25  C   UNL d   1     -30.256  10.980  22.190  0.00  0.00     0.210 C 
ENDBRANCH  19  24
TORSDOF 2
ENDMDL
MODEL 2
REMARK VINA RESULT:    -9.387      1.148      5.622
REMARK INTER + INTRA:          -7.494
REMARK INTER:                 -10.470
REMARK INTRA:                   2.976
REMARK UNBOUND:                 2.991
REMARK  2 active torsions:
REMARK  status: ('A' for Active; 'I' for Inactive)
REMARK    1  A    between atoms: O_3  and  C_17 
REMARK    2  A    between atoms: O_4  and  C_21 
ROOT
ATOM      1  O   UNL d   1     -29.095  11.426  22.699  0.00  0.00    -0.323 OA
ATOM      2  O   UNL d   1     -30.428  10.611  22.091  0.00  0.00    -0.323 OA
ATOM      3  N   UNL d   1     -31.346  15.210  21.628  0.00  0.00    -0.400 N 
ATOM      4  C   UNL d   1     -30.569  14.696  21.991  0.00  0.00     0.117 A 
ATOM      5  C   UNL d   1     -29.733  15.188  22.372  0.00  0.00     0.069 A 
ATOM      6  C   UNL d   1     -30.586  13.696  21.991  0.00  0.00    -0.026 A 
ATOM      7  C   UNL d   1     -32.141  14.723  21.265  0.00  0.00     0.122 A 
ATOM      8  C   UNL d   1     -31.342  16.251  21.621  0.00  0.00     0.160 A 
ATOM      9  C   UNL d   1     -32.159  13.724  21.265  0.00  0.00     0.058 A 
ATOM     10  C   UNL d   1     -31.381  13.210  21.629  0.00  0.00    -0.045 A 
ATOM     11  C   UNL d   1     -29.708  16.230  22.374  0.00  0.00    -0.045 A 
ATOM     12  C   UNL d   1     -30.517  16.764  21.997  0.00  0.00     0.002 A 
ATOM     13  C   UNL d   1     -29.769  13.175  22.373  0.00  0.00     0.049 A 
ATOM     14  C   UNL d   1     -31.414  12.169  21.622  0.00  0.00     0.047 A 
ATOM     15  C   UNL d   1     -30.514  17.849  21.989  0.00  0.00     0.110 A 
ATOM     16  C   UNL d   1     -28.838  16.743  22.771  0.00  0.00     0.011 A 
ATOM     17  C   UNL d   1     -29.780  12.133  22.377  0.00  0.00     0.105 A 
ATOM     18  C   UNL d   1     -30.608  11.627  21.999  0.00  0.00     0.105 A 
ATOM     19  C   UNL d   1     -29.655  18.384  22.380  0.00  0.00     0.102 A 
ATOM     20  C   UNL d   1     -28.811  17.827  22.774  0.00  0.00     0.040 A 
ATOM     21  C   UNL d   1     -29.495  10.488  22.522  0.00  0.00     0.352 A 
ENDROOT
BRANCH  15  22
ATOM     22  O   UNL d   1     -31.296  18.353  21.624  0.00  0.00    -0.352 OA
ATOM     23  C   UNL d   1     -31.327  18.595  20.654  0.00  0.00     0.210 C 
ENDBRANCH  15  22
BRANCH  19  24
ATOM     24  O   UNL d   1     -29.640  19.384  22.378  0.00  0.00    -0.353 OA
ATOM     25  C   UNL d   1     -28.877  19.875  22.798  0.00  0.00     0.210 C 
ENDBRANCH  19  24
TORSDOF 2
ENDMDL
MODEL 3
REMARK VINA RESULT:    -9.128      1.145      6.005
REMARK INTER + INTRA:          -7.205
REMARK INTER:                 -10.190
REMARK INTRA:                   2.985
REMARK UNBOUND:                 2.991
REMARK  2 active torsions:
REMARK  status: ('A' for Active; 'I' for Inactive)
REMARK    1  A    between atoms: O_3  and  C_17 
REMARK    2  A    between atoms: O_4  and  C_21 
ROOT
ATOM      1  O   UNL d   1     -31.910  12.945  20.536  0.00  0.00    -0.323 OA
ATOM      2  O   UNL d   1     -30.951  12.000  21.536  0.00  0.00    -0.323 OA
ATOM      3  N   UNL d   1     -29.853  16.484  22.477  0.00  0.00    -0.400 N 
ATOM      4  C   UNL d   1     -30.496  16.051  21.846  0.00  0.00     0.117 A 
ATOM      5  C   UNL d   1     -31.098  16.625  21.218  0.00  0.00     0.069 A 
ATOM      6  C   UNL d   1     -30.567  15.054  21.811  0.00  0.00    -0.026 A 
ATOM      7  C   UNL d   1     -29.281  15.921  23.074  0.00  0.00     0.122 A 
ATOM      8  C   UNL d   1     -29.768  17.521  22.525  0.00  0.00     0.160 A 
ATOM      9  C   UNL d   1     -29.353  14.924  23.038  0.00  0.00     0.058 A 
ATOM     10  C   UNL d   1     -29.995  14.491  22.407  0.00  0.00    -0.045 A 
ATOM     11  C   UNL d   1     -31.029  17.664  21.249  0.00  0.00    -0.045 A 
ATOM     12  C   UNL d   1     -30.360  18.115  21.907  0.00  0.00     0.002 A 
ATOM     13  C   UNL d   1     -31.242  14.617  21.147  0.00  0.00     0.049 A 
ATOM     14  C   UNL d   1     -30.059  13.451  22.382  0.00  0.00     0.047 A 
ATOM     15  C   UNL d   1     -30.271  19.195  21.957  0.00  0.00     0.110 A 
ATOM     16  C   UNL d   1     -31.656  18.261  20.596  0.00  0.00     0.011 A 
ATOM     17  C   UNL d   1     -31.322  13.580  21.105  0.00  0.00     0.105 A 
ATOM     18  C   UNL d   1     -30.726  12.993  21.726  0.00  0.00     0.105 A 
ATOM     19  C   UNL d   1     -30.887  19.813  21.313  0.00  0.00     0.102 A 
ATOM     20  C   UNL d   1     -31.585  19.343  20.628  0.00  0.00     0.040 A 
ATOM     21  C   UNL d   1     -31.681  11.970  20.803  0.00  0.00     0.352 A 
ENDROOT
BRANCH  15  22
ATOM     22  O   UNL d   1     -29.624  19.618  22.592  0.00  0.00    -0.352 OA
ATOM     23  C   UNL d   1     -28.682  19.790  22.306  0.00  0.00     0.210 C 
ENDBRANCH  15  22
BRANCH  19  24
ATOM     24  O   UNL d   1     -30.813  20.810  21.351  0.00  0.00    -0.353 OA
ATOM     25  C   UNL d   1     -31.564  21.380  21.018  0.00  0.00     0.210 C 
ENDBRANCH  19  24
TORSDOF 2
ENDMDL
MODEL 4
REMARK VINA RESULT:    -8.785     34.659     37.897
REMARK INTER + INTRA:          -6.821
REMARK INTER:                  -9.798
REMARK INTRA:                   2.977
REMARK UNBOUND:                 2.991
REMARK  2 active torsions:
REMARK  status: ('A' for Active; 'I' for Inactive)
REMARK    1  A    between atoms: O_3  and  C_17 
REMARK    2  A    between atoms: O_4  and  C_21 
ROOT
ATOM      1  O   UNL d   1     -17.492 -13.020   6.748  0.00  0.00    -0.323 OA
ATOM      2  O   UNL d   1     -17.296 -11.451   6.190  0.00  0.00    -0.323 OA
ATOM      3  N   UNL d   1     -13.009 -13.406   6.220  0.00  0.00    -0.400 N 
ATOM      4  C   UNL d   1     -13.919 -13.739   6.466  0.00  0.00     0.117 A 
ATOM      5  C   UNL d   1     -14.057 -14.711   6.814  0.00  0.00     0.069 A 
ATOM      6  C   UNL d   1     -14.712 -13.136   6.379  0.00  0.00    -0.026 A 
ATOM      7  C   UNL d   1     -12.892 -12.470   5.887  0.00  0.00     0.122 A 
ATOM      8  C   UNL d   1     -12.173 -14.022   6.305  0.00  0.00     0.160 A 
ATOM      9  C   UNL d   1     -13.685 -11.867   5.800  0.00  0.00     0.058 A 
ATOM     10  C   UNL d   1     -14.595 -12.200   6.046  0.00  0.00    -0.045 A 
ATOM     11  C   UNL d   1     -13.235 -15.344   6.907  0.00  0.00    -0.045 A 
ATOM     12  C   UNL d   1     -12.287 -14.998   6.651  0.00  0.00     0.002 A 
ATOM     13  C   UNL d   1     -15.654 -13.498   6.639  0.00  0.00     0.049 A 
ATOM     14  C   UNL d   1     -15.412 -11.561   5.951  0.00  0.00     0.047 A 
ATOM     15  C   UNL d   1     -11.417 -15.639   6.739  0.00  0.00     0.110 A 
ATOM     16  C   UNL d   1     -13.378 -16.357   7.269  0.00  0.00     0.011 A 
ATOM     17  C   UNL d   1     -16.486 -12.876   6.552  0.00  0.00     0.105 A 
ATOM     18  C   UNL d   1     -16.364 -11.901   6.205  0.00  0.00     0.105 A 
ATOM     19  C   UNL d   1     -11.535 -16.656   7.099  0.00  0.00     0.102 A 
ATOM     20  C   UNL d   1     -12.523 -17.017   7.366  0.00  0.00     0.040 A 
ATOM     21  C   UNL d   1     -17.992 -12.140   6.525  0.00  0.00     0.352 A 
ENDROOT
BRANCH  15  22
ATOM     22  O   UNL d   1     -10.511 -15.296   6.490  0.00  0.00    -0.352 OA
ATOM     23  C   UNL d   1     -10.175 -15.402   5.555  0.00  0.00     0.210 C 
ENDBRANCH  15  22
BRANCH  19  24
ATOM     24  O   UNL d   1     -10.740 -17.255   7.185  0.00  0.00    -0.353 OA
ATOM     25  C   UNL d   1     -10.805 -18.102   7.713  0.00  0.00     0.210 C 
ENDBRANCH  19  24
TORSDOF 2
ENDMDL
MODEL 5
REMARK VINA RESULT:    -8.718     22.997     23.927
REMARK INTER + INTRA:          -6.747
REMARK INTER:                  -9.730
REMARK INTRA:                   2.983
REMARK UNBOUND:                 2.991
REMARK  2 active torsions:
REMARK  status: ('A' for Active; 'I' for Inactive)
REMARK    1  A    between atoms: O_3  and  C_17 
REMARK    2  A    between atoms: O_4  and  C_21 
ROOT
ATOM      1  O   UNL d   1      -8.984  11.079  10.692  0.00  0.00    -0.323 OA
ATOM      2  O   UNL d   1     -10.118  12.042  11.464  0.00  0.00    -0.323 OA
ATOM      3  N   UNL d   1     -11.110   7.591  12.651  0.00  0.00    -0.400 N 
ATOM      4  C   UNL d   1     -10.408   8.010  12.075  0.00  0.00     0.117 A 
ATOM      5  C   UNL d   1      -9.696   7.425  11.589  0.00  0.00     0.069 A 
ATOM      6  C   UNL d   1     -10.383   9.003  11.960  0.00  0.00    -0.026 A 
ATOM      7  C   UNL d   1     -11.787   8.165  13.112  0.00  0.00     0.122 A 
ATOM      8  C   UNL d   1     -11.149   6.558  12.780  0.00  0.00     0.160 A 
ATOM      9  C   UNL d   1     -11.761   9.158  12.997  0.00  0.00     0.058 A 
ATOM     10  C   UNL d   1     -11.059   9.577  12.421  0.00  0.00    -0.045 A 
ATOM     11  C   UNL d   1      -9.717   6.390  11.704  0.00  0.00    -0.045 A 
ATOM     12  C   UNL d   1     -10.447   5.954  12.304  0.00  0.00     0.002 A 
ATOM     13  C   UNL d   1      -9.645   9.424  11.356  0.00  0.00     0.049 A 
ATOM     14  C   UNL d   1     -11.046  10.613  12.310  0.00  0.00     0.047 A 
ATOM     15  C   UNL d   1     -10.488   4.878  12.439  0.00  0.00     0.110 A 
ATOM     16  C   UNL d   1      -8.975   5.780  11.197  0.00  0.00     0.011 A 
ATOM     17  C   UNL d   1      -9.612  10.458  11.231  0.00  0.00     0.105 A 
ATOM     18  C   UNL d   1     -10.317  11.056  11.711  0.00  0.00     0.105 A 
ATOM     19  C   UNL d   1      -9.758   4.248  11.942  0.00  0.00     0.102 A 
ATOM     20  C   UNL d   1      -8.996   4.702  11.317  0.00  0.00     0.040 A 
ATOM     21  C   UNL d   1      -9.296  12.056  10.836  0.00  0.00     0.352 A 
ENDROOT
BRANCH  15  22
ATOM     22  O   UNL d   1     -11.194   4.469  13.017  0.00  0.00    -0.352 OA
ATOM     23  C   UNL d   1     -11.008   4.288  13.982  0.00  0.00     0.210 C 
ENDBRANCH  15  22
BRANCH  19  24
ATOM     24  O   UNL d   1      -9.786   3.255  12.060  0.00  0.00    -0.353 OA
ATOM     25  C   UNL d   1      -9.227   2.666  11.477  0.00  0.00     0.210 C 
ENDBRANCH  19  24
TORSDOF 2
ENDMDL
