MODEL 1
REMARK VINA RESULT:   -11.465      0.000      0.000
REMARK INTER + INTRA:          -7.003
REMARK INTER:                 -15.660
REMARK INTRA:                   8.657
REMARK UNBOUND:                 8.483
REMARK  9 active torsions:
REMARK  status: ('A' for Active; 'I' for Inactive)
REMARK    1  A    between atoms: O_3  and  C_17 
REMARK    2  A    between atoms: O_4  and  C_18 
REMARK    3  A    between atoms: O_5  and  C_19 
REMARK    4  A    between atoms: O_7  and  C_32 
REMARK    5  A    between atoms: O_9  and  C_36 
REMARK    6  A    between atoms: O_10  and  C_40 
REMARK    7  A    between atoms: C_11  and  C_13 
REMARK    8  A    between atoms: C_15  and  C_20 
REMARK    9  A    between atoms: C_22  and  C_29 
ROOT
ATOM      1  O   UNL d   1      -8.862  12.441   9.425  0.00  0.00    -0.308 OA
ATOM      2  O   UNL d   1      -9.841  13.859   6.886  0.00  0.00    -0.287 OA
ATOM      3  C   UNL d   1     -10.467  12.657  10.114  0.00  0.00     0.045 A 
ATOM      4  C   UNL d   1      -9.841  12.789   9.346  0.00  0.00     0.107 A 
ATOM      5  C   UNL d   1     -10.156  13.251   8.517  0.00  0.00     0.082 A 
ATOM      6  C   UNL d   1     -11.410  12.986  10.053  0.00  0.00     0.082 A 
ATOM      7  C   UNL d   1     -11.098  13.581   8.456  0.00  0.00     0.085 A 
ATOM      8  C   UNL d   1     -11.725  13.448   9.224  0.00  0.00     0.075 A 
ATOM      9  C   UNL d   1      -8.203  12.575   8.629  0.00  0.00     0.090 A 
ATOM     10  C   UNL d   1      -9.515  13.396   7.710  0.00  0.00     0.190 A 
ATOM     11  C   UNL d   1      -8.532  13.056   7.765  0.00  0.00     0.094 A 
ENDROOT
BRANCH   3  12
ATOM     12  C   UNL d   1     -10.152  12.195  10.943  0.00  0.00     0.014 A 
ATOM     13  C   UNL d   1     -10.278  11.208  11.045  0.00  0.00     0.029 A 
ATOM     14  C   UNL d   1      -9.963  10.747  11.874  0.00  0.00    -0.001 A 
ATOM     15  C   UNL d   1      -9.521  11.272  12.601  0.00  0.00     0.017 A 
ATOM     16  C   UNL d   1      -9.395  12.258  12.499  0.00  0.00     0.038 A 
ATOM     17  C   UNL d   1      -9.710  12.720  11.670  0.00  0.00     0.076 A 
BRANCH  14  18
ATOM     18  C   UNL d   1     -10.089   9.760  11.975  0.00  0.00     0.090 A 
ATOM     19  O   UNL d   1      -9.476   9.126  11.503  0.00  0.00    -0.309 OA
ATOM     20  C   UNL d   1      -9.602   8.139  11.605  0.00  0.00     0.095 A 
ATOM     21  C   UNL d   1     -10.342   7.786  12.178  0.00  0.00     0.081 A 
ATOM     22  C   UNL d   1      -8.956   7.492  11.107  0.00  0.00     0.075 A 
ATOM     23  C   UNL d   1     -10.955   8.420  12.650  0.00  0.00     0.190 A 
ATOM     24  C   UNL d   1     -10.486   6.761  12.293  0.00  0.00     0.085 A 
ATOM     25  O   UNL d   1     -11.694   8.067  13.224  0.00  0.00    -0.287 OA
ATOM     26  C   UNL d   1     -10.828   9.407  12.549  0.00  0.00     0.094 A 
ATOM     27  C   UNL d   1      -9.851   6.095  11.805  0.00  0.00     0.074 A 
ATOM     28  C   UNL d   1      -9.081   6.462  11.207  0.00  0.00     0.071 A 
BRANCH  24  29
ATOM     29  O   UNL d   1     -11.228   6.419  12.869  0.00  0.00    -0.360 OA
ATOM     30  H   UNL d   1     -11.306   5.808  12.944  0.00  0.00     0.217 HD
ENDBRANCH  24  29
BRANCH  28  31
ATOM     31  O   UNL d   1      -8.466   5.832  10.734  0.00  0.00    -0.361 OA
ATOM     32  H   UNL d   1      -8.018   5.541  11.049  0.00  0.00     0.217 HD
ENDBRANCH  28  31
ENDBRANCH  14  18
BRANCH  17  33
ATOM     33  O   UNL d   1      -9.584  13.707  11.569  0.00  0.00    -0.360 OA
ATOM     34  H   UNL d   1      -9.576  13.962  11.004  0.00  0.00     0.217 HD
ENDBRANCH  17  33
ENDBRANCH   3  12
BRANCH   6  35
ATOM     35  O   UNL d   1     -12.036  12.854  10.821  0.00  0.00    -0.360 OA
ATOM     36  H   UNL d   1     -12.561  12.532  10.741  0.00  0.00     0.217 HD
ENDBRANCH   6  35
BRANCH   9  37
ATOM     37  C   UNL d   1      -7.262  12.244   8.694  0.00  0.00    -0.002 A 
ATOM     38  C   UNL d   1      -7.070  11.367   9.135  0.00  0.00     0.017 A 
ATOM     39  C   UNL d   1      -6.129  11.036   9.201  0.00  0.00     0.037 A 
ATOM     40  C   UNL d   1      -5.380  11.581   8.826  0.00  0.00     0.065 A 
ATOM     41  C   UNL d   1      -5.572  12.459   8.385  0.00  0.00     0.037 A 
ATOM     42  C   UNL d   1      -6.513  12.790   8.320  0.00  0.00     0.017 A 
BRANCH  40  43
ATOM     43  O   UNL d   1      -4.438  11.251   8.891  0.00  0.00    -0.361 OA
ATOM     44  H   UNL d   1      -4.321  10.641   8.873  0.00  0.00     0.217 HD
ENDBRANCH  40  43
ENDBRANCH   9  37
BRANCH   7  45
ATOM     45  O   UNL d   1     -11.414  14.042   7.627  0.00  0.00    -0.360 OA
ATOM     46  H   UNL d   1     -11.554  13.711   7.122  0.00  0.00     0.217 HD
ENDBRANCH   7  45
TORSDOF 9
ENDMDL
MODEL 2
REMARK VINA RESULT:   -11.287      2.007      4.191
REMARK INTER + INTRA:          -6.762
REMARK INTER:                 -15.516
REMARK INTRA:                   8.754
REMARK UNBOUND:                 8.483
REMARK  9 active torsions:
REMARK  status: ('A' for Active; 'I' for Inactive)
REMARK    1  A    between atoms: O_3  and  C_17 
REMARK    2  A    between atoms: O_4  and  C_18 
REMARK    3  A    between atoms: O_5  and  C_19 
REMARK    4  A    between atoms: O_7  and  C_32 
REMARK    5  A    between atoms: O_9  and  C_36 
REMARK    6  A    between atoms: O_10  and  C_40 
REMARK    7  A    between atoms: C_11  and  C_13 
REMARK    8  A    between atoms: C_15  and  C_20 
REMARK    9  A    between atoms: C_22  and  C_29 
ROOT
ATOM      1  O   UNL d   1      -9.441  12.057  12.101  0.00  0.00    -0.308 OA
ATOM      2  O   UNL d   1      -6.893  13.740  12.411  0.00  0.00    -0.287 OA
ATOM      3  C   UNL d   1      -9.028  11.233  13.601  0.00  0.00     0.045 A 
ATOM      4  C   UNL d   1      -8.803  11.923  12.913  0.00  0.00     0.107 A 
ATOM      5  C   UNL d   1      -7.973  12.473  13.011  0.00  0.00     0.082 A 
ATOM      6  C   UNL d   1      -8.425  11.093  14.386  0.00  0.00     0.082 A 
ATOM      7  C   UNL d   1      -7.370  12.333  13.796  0.00  0.00     0.085 A 
ATOM      8  C   UNL d   1      -7.596  11.643  14.483  0.00  0.00     0.075 A 
ATOM      9  C   UNL d   1      -9.212  12.774  11.381  0.00  0.00     0.090 A 
ATOM     10  C   UNL d   1      -7.725  13.195  12.303  0.00  0.00     0.190 A 
ATOM     11  C   UNL d   1      -8.348  13.347  11.483  0.00  0.00     0.094 A 
ENDROOT
BRANCH   3  12
ATOM     12  C   UNL d   1      -9.858  10.682  13.503  0.00  0.00     0.014 A 
ATOM     13  C   UNL d   1      -9.814   9.786  13.062  0.00  0.00     0.029 A 
ATOM     14  C   UNL d   1     -10.643   9.236  12.964  0.00  0.00    -0.001 A 
ATOM     15  C   UNL d   1     -11.516   9.582  13.307  0.00  0.00     0.017 A 
ATOM     16  C   UNL d   1     -11.560  10.478  13.748  0.00  0.00     0.038 A 
ATOM     17  C   UNL d   1     -10.731  11.029  13.846  0.00  0.00     0.076 A 
BRANCH  14  18
ATOM     18  C   UNL d   1     -10.599   8.339  12.524  0.00  0.00     0.090 A 
ATOM     19  O   UNL d   1     -10.858   7.518  13.033  0.00  0.00    -0.309 OA
ATOM     20  C   UNL d   1     -10.814   6.622  12.592  0.00  0.00     0.095 A 
ATOM     21  C   UNL d   1     -10.511   6.546  11.642  0.00  0.00     0.081 A 
ATOM     22  C   UNL d   1     -11.086   5.775  13.136  0.00  0.00     0.075 A 
ATOM     23  C   UNL d   1     -10.253   7.367  11.133  0.00  0.00     0.190 A 
ATOM     24  C   UNL d   1     -10.460   5.619  11.169  0.00  0.00     0.085 A 
ATOM     25  O   UNL d   1      -9.951   7.291  10.182  0.00  0.00    -0.287 OA
ATOM     26  C   UNL d   1     -10.297   8.263  11.573  0.00  0.00     0.094 A 
ATOM     27  C   UNL d   1     -10.728   4.759  11.694  0.00  0.00     0.074 A 
ATOM     28  C   UNL d   1     -11.043   4.838  12.684  0.00  0.00     0.071 A 
BRANCH  24  29
ATOM     29  O   UNL d   1     -10.157   5.555  10.219  0.00  0.00    -0.360 OA
ATOM     30  H   UNL d   1     -10.470   5.851   9.773  0.00  0.00     0.217 HD
ENDBRANCH  24  29
BRANCH  28  31
ATOM     31  O   UNL d   1     -11.302   4.019  13.196  0.00  0.00    -0.361 OA
ATOM     32  H   UNL d   1     -11.201   3.992  13.808  0.00  0.00     0.217 HD
ENDBRANCH  28  31
ENDBRANCH  14  18
BRANCH  17  33
ATOM     33  O   UNL d   1     -10.775  11.925  14.287  0.00  0.00    -0.360 OA
ATOM     34  H   UNL d   1     -10.827  11.965  14.903  0.00  0.00     0.217 HD
ENDBRANCH  17  33
ENDBRANCH   3  12
BRANCH   6  35
ATOM     35  O   UNL d   1      -8.651  10.402  15.073  0.00  0.00    -0.360 OA
ATOM     36  H   UNL d   1      -8.206  10.169  15.436  0.00  0.00     0.217 HD
ENDBRANCH   6  35
BRANCH   9  37
ATOM     37  C   UNL d   1      -9.818  12.911  10.597  0.00  0.00    -0.002 A 
ATOM     38  C   UNL d   1     -10.775  13.162  10.744  0.00  0.00     0.017 A 
ATOM     39  C   UNL d   1     -11.382  13.299   9.961  0.00  0.00     0.037 A 
ATOM     40  C   UNL d   1     -11.032  13.185   9.031  0.00  0.00     0.065 A 
ATOM     41  C   UNL d   1     -10.075  12.933   8.885  0.00  0.00     0.037 A 
ATOM     42  C   UNL d   1      -9.469  12.796   9.668  0.00  0.00     0.017 A 
BRANCH  40  43
ATOM     43  O   UNL d   1     -11.638  13.321   8.248  0.00  0.00    -0.361 OA
ATOM     44  H   UNL d   1     -11.472  13.708   7.791  0.00  0.00     0.217 HD
ENDBRANCH  40  43
ENDBRANCH   9  37
BRANCH   7  45
ATOM     45  O   UNL d   1      -6.541  12.884  13.894  0.00  0.00    -0.360 OA
ATOM     46  H   UNL d   1      -5.997  12.607  14.003  0.00  0.00     0.217 HD
ENDBRANCH   7  45
TORSDOF 9
ENDMDL
MODEL 3
REMARK VINA RESULT:   -11.116     22.267     23.749
REMARK INTER + INTRA:          -6.532
REMARK INTER:                 -16.203
REMARK INTRA:                   9.672
REMARK UNBOUND:                 8.483
REMARK  9 active torsions:
REMARK  status: ('A' for Active; 'I' for Inactive)
REMARK    1  A    between atoms: O_3  and  C_17 
REMARK    2  A    between atoms: O_4  and  C_18 
REMARK    3  A    between atoms: O_5  and  C_19 
REMARK    4  A    between atoms: O_7  and  C_32 
REMARK    5  A    between atoms: O_9  and  C_36 
REMARK    6  A    between atoms: O_10  and  C_40 
REMARK    7  A    between atoms: C_11  and  C_13 
REMARK    8  A    between atoms: C_15  and  C_20 
REMARK    9  A    between atoms: C_22  and  C_29 
ROOT
ATOM      1  O   UNL d   1     -27.944  18.854  22.187  0.00  0.00    -0.308 OA
ATOM      2  O   UNL d   1     -26.161  20.271  20.131  0.00  0.00    -0.287 OA
ATOM      3  C   UNL d   1     -29.025  18.399  20.874  0.00  0.00     0.045 A 
ATOM      4  C   UNL d   1     -28.191  18.862  21.175  0.00  0.00     0.107 A 
ATOM      5  C   UNL d   1     -27.608  19.325  20.508  0.00  0.00     0.082 A 
ATOM      6  C   UNL d   1     -29.275  18.398  19.906  0.00  0.00     0.082 A 
ATOM      7  C   UNL d   1     -27.858  19.325  19.540  0.00  0.00     0.085 A 
ATOM      8  C   UNL d   1     -28.691  18.861  19.239  0.00  0.00     0.075 A 
ATOM      9  C   UNL d   1     -27.077  19.334  22.508  0.00  0.00     0.090 A 
ATOM     10  C   UNL d   1     -26.737  19.812  20.807  0.00  0.00     0.190 A 
ATOM     11  C   UNL d   1     -26.469  19.817  21.813  0.00  0.00     0.094 A 
ENDROOT
BRANCH   3  12
ATOM     12  C   UNL d   1     -29.608  17.936  21.542  0.00  0.00     0.014 A 
ATOM     13  C   UNL d   1     -29.612  16.937  21.594  0.00  0.00     0.029 A 
ATOM     14  C   UNL d   1     -30.196  16.474  22.261  0.00  0.00    -0.001 A 
ATOM     15  C   UNL d   1     -30.775  17.010  22.876  0.00  0.00     0.017 A 
ATOM     16  C   UNL d   1     -30.770  18.008  22.824  0.00  0.00     0.038 A 
ATOM     17  C   UNL d   1     -30.187  18.471  22.156  0.00  0.00     0.076 A 
BRANCH  14  18
ATOM     18  C   UNL d   1     -30.200  15.476  22.314  0.00  0.00     0.090 A 
ATOM     19  O   UNL d   1     -30.708  14.942  21.638  0.00  0.00    -0.309 OA
ATOM     20  C   UNL d   1     -30.712  13.943  21.690  0.00  0.00     0.095 A 
ATOM     21  C   UNL d   1     -30.210  13.478  22.419  0.00  0.00     0.081 A 
ATOM     22  C   UNL d   1     -31.246  13.400  20.978  0.00  0.00     0.075 A 
ATOM     23  C   UNL d   1     -29.702  14.012  23.095  0.00  0.00     0.190 A 
ATOM     24  C   UNL d   1     -30.205  12.439  22.487  0.00  0.00     0.085 A 
ATOM     25  O   UNL d   1     -29.199  13.548  23.824  0.00  0.00    -0.287 OA
ATOM     26  C   UNL d   1     -29.697  15.011  23.043  0.00  0.00     0.094 A 
ATOM     27  C   UNL d   1     -30.731  11.876  21.786  0.00  0.00     0.074 A 
ATOM     28  C   UNL d   1     -31.255  12.360  21.026  0.00  0.00     0.071 A 
BRANCH  24  29
ATOM     29  O   UNL d   1     -29.699  11.985  23.219  0.00  0.00    -0.360 OA
ATOM     30  H   UNL d   1     -29.576  11.377  23.182  0.00  0.00     0.217 HD
ENDBRANCH  24  29
BRANCH  28  31
ATOM     31  O   UNL d   1     -31.764  11.829  20.348  0.00  0.00    -0.361 OA
ATOM     32  H   UNL d   1     -32.363  11.953  20.244  0.00  0.00     0.217 HD
ENDBRANCH  28  31
ENDBRANCH  14  18
BRANCH  17  33
ATOM     33  O   UNL d   1     -30.182  19.470  22.104  0.00  0.00    -0.360 OA
ATOM     34  H   UNL d   1     -30.089  19.751  21.559  0.00  0.00     0.217 HD
ENDBRANCH  17  33
ENDBRANCH   3  12
BRANCH   6  35
ATOM     35  O   UNL d   1     -30.108  17.935  19.605  0.00  0.00    -0.360 OA
ATOM     36  H   UNL d   1     -30.230  17.359  19.800  0.00  0.00     0.217 HD
ENDBRANCH   6  35
BRANCH   9  37
ATOM     37  C   UNL d   1     -26.831  19.332  23.478  0.00  0.00    -0.002 A 
ATOM     38  C   UNL d   1     -27.446  19.745  24.150  0.00  0.00     0.017 A 
ATOM     39  C   UNL d   1     -27.200  19.743  25.119  0.00  0.00     0.037 A 
ATOM     40  C   UNL d   1     -26.339  19.329  25.416  0.00  0.00     0.065 A 
ATOM     41  C   UNL d   1     -25.724  18.917  24.743  0.00  0.00     0.037 A 
ATOM     42  C   UNL d   1     -25.971  18.919  23.774  0.00  0.00     0.017 A 
BRANCH  40  43
ATOM     43  O   UNL d   1     -26.093  19.327  26.385  0.00  0.00    -0.361 OA
ATOM     44  H   UNL d   1     -26.445  19.020  26.794  0.00  0.00     0.217 HD
ENDBRANCH  40  43
ENDBRANCH   9  37
BRANCH   7  45
ATOM     45  O   UNL d   1     -27.274  19.788  18.872  0.00  0.00    -0.360 OA
ATOM     46  H   UNL d   1     -26.904  20.251  19.053  0.00  0.00     0.217 HD
ENDBRANCH   7  45
TORSDOF 9
ENDMDL
MODEL 4
REMARK VINA RESULT:   -10.874     23.062     25.304
REMARK INTER + INTRA:          -6.205
REMARK INTER:                 -14.789
REMARK INTRA:                   8.584
REMARK UNBOUND:                 8.483
REMARK  9 active torsions:
REMARK  status: ('A' for Active; 'I' for Inactive)
REMARK    1  A    between atoms: O_3  and  C_17 
REMARK    2  A    between atoms: O_4  and  C_18 
REMARK    3  A    between atoms: O_5  and  C_19 
REMARK    4  A    between atoms: O_7  and  C_32 
REMARK    5  A    between atoms: O_9  and  C_36 
REMARK    6  A    between atoms: O_10  and  C_40 
REMARK    7  A    between atoms: C_11  and  C_13 
REMARK    8  A    between atoms: C_15  and  C_20 
REMARK    9  A    between atoms: C_22  and  C_29 
ROOT
ATOM      1  O   UNL d   1     -15.058 -11.672   5.774  0.00  0.00    -0.308 OA
ATOM      2  O   UNL d   1     -16.103 -10.267   3.253  0.00  0.00    -0.287 OA
ATOM      3  C   UNL d   1     -13.447 -11.654   5.065  0.00  0.00     0.045 A 
ATOM      4  C   UNL d   1     -14.417 -11.426   4.990  0.00  0.00     0.107 A 
ATOM      5  C   UNL d   1     -14.762 -10.968   4.170  0.00  0.00     0.082 A 
ATOM      6  C   UNL d   1     -12.820 -11.424   4.320  0.00  0.00     0.082 A 
ATOM      7  C   UNL d   1     -14.135 -10.738   3.425  0.00  0.00     0.085 A 
ATOM      8  C   UNL d   1     -13.164 -10.966   3.500  0.00  0.00     0.075 A 
ATOM      9  C   UNL d   1     -16.070 -11.438   5.703  0.00  0.00     0.090 A 
ATOM     10  C   UNL d   1     -15.770 -10.725   4.078  0.00  0.00     0.190 A 
ATOM     11  C   UNL d   1     -16.429 -10.961   4.849  0.00  0.00     0.094 A 
ENDROOT
BRANCH   3  12
ATOM     12  C   UNL d   1     -13.102 -12.112   5.885  0.00  0.00     0.014 A 
ATOM     13  C   UNL d   1     -13.077 -13.111   5.926  0.00  0.00     0.029 A 
ATOM     14  C   UNL d   1     -12.733 -13.568   6.746  0.00  0.00    -0.001 A 
ATOM     15  C   UNL d   1     -12.414 -13.027   7.524  0.00  0.00     0.017 A 
ATOM     16  C   UNL d   1     -12.439 -12.029   7.482  0.00  0.00     0.038 A 
ATOM     17  C   UNL d   1     -12.783 -11.571   6.663  0.00  0.00     0.076 A 
BRANCH  14  18
ATOM     18  C   UNL d   1     -12.708 -14.567   6.787  0.00  0.00     0.090 A 
ATOM     19  O   UNL d   1     -11.857 -15.055   6.591  0.00  0.00    -0.309 OA
ATOM     20  C   UNL d   1     -11.832 -16.053   6.633  0.00  0.00     0.095 A 
ATOM     21  C   UNL d   1     -12.658 -16.565   6.871  0.00  0.00     0.081 A 
ATOM     22  C   UNL d   1     -10.938 -16.547   6.426  0.00  0.00     0.075 A 
ATOM     23  C   UNL d   1     -13.509 -16.077   7.067  0.00  0.00     0.190 A 
ATOM     24  C   UNL d   1     -12.647 -17.605   6.918  0.00  0.00     0.085 A 
ATOM     25  O   UNL d   1     -14.334 -16.589   7.305  0.00  0.00    -0.287 OA
ATOM     26  C   UNL d   1     -13.534 -15.079   7.025  0.00  0.00     0.094 A 
ATOM     27  C   UNL d   1     -11.764 -18.120   6.715  0.00  0.00     0.074 A 
ATOM     28  C   UNL d   1     -10.904 -17.588   6.467  0.00  0.00     0.071 A 
BRANCH  24  29
ATOM     29  O   UNL d   1     -13.479 -18.107   7.157  0.00  0.00    -0.360 OA
ATOM     30  H   UNL d   1     -14.020 -17.952   6.896  0.00  0.00     0.217 HD
ENDBRANCH  24  29
BRANCH  28  31
ATOM     31  O   UNL d   1     -10.051 -18.071   6.271  0.00  0.00    -0.361 OA
ATOM     32  H   UNL d   1      -9.616 -18.124   6.710  0.00  0.00     0.217 HD
ENDBRANCH  28  31
ENDBRANCH  14  18
BRANCH  17  33
ATOM     33  O   UNL d   1     -12.808 -10.572   6.621  0.00  0.00    -0.360 OA
ATOM     34  H   UNL d   1     -13.286 -10.263   6.869  0.00  0.00     0.217 HD
ENDBRANCH  17  33
ENDBRANCH   3  12
BRANCH   6  35
ATOM     35  O   UNL d   1     -11.849 -11.652   4.395  0.00  0.00    -0.360 OA
ATOM     36  H   UNL d   1     -11.522 -11.459   4.886  0.00  0.00     0.217 HD
ENDBRANCH   6  35
BRANCH   9  37
ATOM     37  C   UNL d   1     -16.694 -11.670   6.450  0.00  0.00    -0.002 A 
ATOM     38  C   UNL d   1     -16.457 -11.427   7.391  0.00  0.00     0.017 A 
ATOM     39  C   UNL d   1     -17.080 -11.658   8.138  0.00  0.00     0.037 A 
ATOM     40  C   UNL d   1     -17.939 -12.132   7.945  0.00  0.00     0.065 A 
ATOM     41  C   UNL d   1     -18.175 -12.375   7.004  0.00  0.00     0.037 A 
ATOM     42  C   UNL d   1     -17.551 -12.144   6.256  0.00  0.00     0.017 A 
BRANCH  40  43
ATOM     43  O   UNL d   1     -18.562 -12.364   8.692  0.00  0.00    -0.361 OA
ATOM     44  H   UNL d   1     -19.020 -11.975   8.846  0.00  0.00     0.217 HD
ENDBRANCH  40  43
ENDBRANCH   9  37
BRANCH   7  45
ATOM     45  O   UNL d   1     -14.479 -10.281   2.606  0.00  0.00    -0.360 OA
ATOM     46  H   UNL d   1     -15.014  -9.968   2.627  0.00  0.00     0.217 HD
ENDBRANCH   7  45
TORSDOF 9
ENDMDL
MODEL 5
REMARK VINA RESULT:   -10.530     44.446     48.840
REMARK INTER + INTRA:          -5.741
REMARK INTER:                 -14.361
REMARK INTRA:                   8.620
REMARK UNBOUND:                 8.483
REMARK  9 active torsions:
REMARK  status: ('A' for Active; 'I' for Inactive)
REMARK    1  A    between atoms: O_3  and  C_17 
REMARK    2  A    between atoms: O_4  and  C_18 
REMARK    3  A    between atoms: O_5  and  C_19 
REMARK    4  A    between atoms: O_7  and  C_32 
REMARK    5  A    between atoms: O_9  and  C_36 
REMARK    6  A    between atoms: O_10  and  C_40 
REMARK    7  A    between atoms: C_11  and  C_13 
REMARK    8  A    between atoms: C_15  and  C_20 
REMARK    9  A    between atoms: C_22  and  C_29 
ROOT
ATOM      1  O   UNL d   1     -17.816 -31.865  28.559  0.00  0.00    -0.308 OA
ATOM      2  O   UNL d   1     -14.823 -31.192  28.651  0.00  0.00    -0.287 OA
ATOM      3  C   UNL d   1     -17.434 -33.464  29.189  0.00  0.00     0.045 A 
ATOM      4  C   UNL d   1     -17.118 -32.562  28.894  0.00  0.00     0.107 A 
ATOM      5  C   UNL d   1     -16.144 -32.339  28.922  0.00  0.00     0.082 A 
ATOM      6  C   UNL d   1     -16.775 -34.143  29.512  0.00  0.00     0.082 A 
ATOM      7  C   UNL d   1     -15.485 -33.018  29.246  0.00  0.00     0.085 A 
ATOM      8  C   UNL d   1     -15.800 -33.920  29.541  0.00  0.00     0.075 A 
ATOM      9  C   UNL d   1     -17.495 -30.923  28.251  0.00  0.00     0.090 A 
ATOM     10  C   UNL d   1     -15.800 -31.404  28.618  0.00  0.00     0.190 A 
ATOM     11  C   UNL d   1     -16.480 -30.691  28.280  0.00  0.00     0.094 A 
ENDROOT
BRANCH   3  12
ATOM     12  C   UNL d   1     -18.408 -33.686  29.160  0.00  0.00     0.014 A 
ATOM     13  C   UNL d   1     -18.985 -33.510  29.958  0.00  0.00     0.029 A 
ATOM     14  C   UNL d   1     -19.959 -33.733  29.930  0.00  0.00    -0.001 A 
ATOM     15  C   UNL d   1     -20.357 -34.132  29.103  0.00  0.00     0.017 A 
ATOM     16  C   UNL d   1     -19.781 -34.307  28.306  0.00  0.00     0.038 A 
ATOM     17  C   UNL d   1     -18.806 -34.085  28.334  0.00  0.00     0.076 A 
BRANCH  14  18
ATOM     18  C   UNL d   1     -20.536 -33.557  30.728  0.00  0.00     0.090 A 
ATOM     19  O   UNL d   1     -21.028 -34.310  31.165  0.00  0.00    -0.309 OA
ATOM     20  C   UNL d   1     -21.605 -34.134  31.962  0.00  0.00     0.095 A 
ATOM     21  C   UNL d   1     -21.689 -33.206  32.323  0.00  0.00     0.081 A 
ATOM     22  C   UNL d   1     -22.111 -34.929  32.407  0.00  0.00     0.075 A 
ATOM     23  C   UNL d   1     -21.197 -32.453  31.886  0.00  0.00     0.190 A 
ATOM     24  C   UNL d   1     -22.286 -33.007  33.154  0.00  0.00     0.085 A 
ATOM     25  O   UNL d   1     -21.281 -31.524  32.247  0.00  0.00    -0.287 OA
ATOM     26  C   UNL d   1     -20.620 -32.629  31.089  0.00  0.00     0.094 A 
ATOM     27  C   UNL d   1     -22.802 -33.787  33.614  0.00  0.00     0.074 A 
ATOM     28  C   UNL d   1     -22.714 -34.754  33.238  0.00  0.00     0.071 A 
BRANCH  24  29
ATOM     29  O   UNL d   1     -22.363 -32.075  33.506  0.00  0.00    -0.360 OA
ATOM     30  H   UNL d   1     -22.671 -31.967  34.034  0.00  0.00     0.217 HD
ENDBRANCH  24  29
BRANCH  28  31
ATOM     31  O   UNL d   1     -23.204 -35.510  33.673  0.00  0.00    -0.361 OA
ATOM     32  H   UNL d   1     -22.889 -35.987  33.911  0.00  0.00     0.217 HD
ENDBRANCH  28  31
ENDBRANCH  14  18
BRANCH  17  33
ATOM     33  O   UNL d   1     -18.229 -34.260  27.536  0.00  0.00    -0.360 OA
ATOM     34  H   UNL d   1     -18.425 -34.645  27.091  0.00  0.00     0.217 HD
ENDBRANCH  17  33
ENDBRANCH   3  12
BRANCH   6  35
ATOM     35  O   UNL d   1     -17.090 -35.045  29.807  0.00  0.00    -0.360 OA
ATOM     36  H   UNL d   1     -17.585 -35.094  30.178  0.00  0.00     0.217 HD
ENDBRANCH   6  35
BRANCH   9  37
ATOM     37  C   UNL d   1     -18.157 -30.247  27.928  0.00  0.00    -0.002 A 
ATOM     38  C   UNL d   1     -18.638 -30.392  27.063  0.00  0.00     0.017 A 
ATOM     39  C   UNL d   1     -19.300 -29.716  26.739  0.00  0.00     0.037 A 
ATOM     40  C   UNL d   1     -19.482 -28.896  27.281  0.00  0.00     0.065 A 
ATOM     41  C   UNL d   1     -19.001 -28.750  28.146  0.00  0.00     0.037 A 
ATOM     42  C   UNL d   1     -18.339 -29.427  28.469  0.00  0.00     0.017 A 
BRANCH  40  43
ATOM     43  O   UNL d   1     -20.144 -28.219  26.958  0.00  0.00    -0.361 OA
ATOM     44  H   UNL d   1     -20.118 -27.635  27.167  0.00  0.00     0.217 HD
ENDBRANCH  40  43
ENDBRANCH   9  37
BRANCH   7  45
ATOM     45  O   UNL d   1     -14.510 -32.796  29.274  0.00  0.00    -0.360 OA
ATOM     46  H   UNL d   1     -14.088 -33.243  29.199  0.00  0.00     0.217 HD
ENDBRANCH   7  45
TORSDOF 9
ENDMDL
