MODEL 1
REMARK VINA RESULT:    -9.568      0.000      0.000
REMARK INTER + INTRA:          -9.351
REMARK INTER:                 -10.373
REMARK INTRA:                   1.022
REMARK UNBOUND:                 1.336
REMARK  3 active torsions:
REMARK  status: ('A' for Active; 'I' for Inactive)
REMARK    1  A    between atoms: O_2  and  C_10 
REMARK    2  A    between atoms: O_4  and  C_13 
REMARK    3  A    between atoms: C_7  and  C_9 
ROOT
ATOM      1  O   UNL d   1     -24.741  23.962 -10.967  0.00  0.00    -0.309 OA
ATOM      2  O   UNL d   1     -23.297  25.325  -8.718  0.00  0.00    -0.287 OA
ATOM      3  C   UNL d   1     -23.506  25.043 -10.414  0.00  0.00     0.081 A 
ATOM      4  C   UNL d   1     -23.987  24.589 -11.164  0.00  0.00     0.095 A 
ATOM      5  C   UNL d   1     -25.014  23.790 -10.021  0.00  0.00     0.090 A 
ATOM      6  C   UNL d   1     -23.779  24.871  -9.468  0.00  0.00     0.190 A 
ATOM      7  C   UNL d   1     -22.719  25.698 -10.604  0.00  0.00     0.085 A 
ATOM      8  C   UNL d   1     -24.533  24.244  -9.271  0.00  0.00     0.094 A 
ATOM      9  C   UNL d   1     -23.715  24.758 -12.155  0.00  0.00     0.075 A 
ATOM     10  C   UNL d   1     -22.930  25.410 -12.368  0.00  0.00     0.071 A 
ATOM     11  C   UNL d   1     -22.430  25.883 -11.588  0.00  0.00     0.074 A 
ENDROOT
BRANCH   5  12
ATOM     12  C   UNL d   1     -25.768  23.163  -9.824  0.00  0.00    -0.002 A 
ATOM     13  C   UNL d   1     -26.713  23.457  -9.966  0.00  0.00     0.014 A 
ATOM     14  C   UNL d   1     -27.467  22.830  -9.769  0.00  0.00     0.001 A 
ATOM     15  C   UNL d   1     -27.275  21.909  -9.430  0.00  0.00     0.000 A 
ATOM     16  C   UNL d   1     -26.330  21.615  -9.287  0.00  0.00     0.001 A 
ATOM     17  C   UNL d   1     -25.577  22.242  -9.484  0.00  0.00     0.014 A 
ENDBRANCH   5  12
BRANCH   7  18
ATOM     18  O   UNL d   1     -22.245  26.147  -9.847  0.00  0.00    -0.360 OA
ATOM     19  H   UNL d   1     -22.050  25.814  -9.362  0.00  0.00     0.217 HD
ENDBRANCH   7  18
BRANCH  10  20
ATOM     20  O   UNL d   1     -22.661  25.579 -13.316  0.00  0.00    -0.361 OA
ATOM     21  H   UNL d   1     -22.670  26.157 -13.542  0.00  0.00     0.217 HD
ENDBRANCH  10  20
TORSDOF 3
ENDMDL
MODEL 2
REMARK VINA RESULT:    -9.157     16.859     17.610
REMARK INTER + INTRA:          -8.892
REMARK INTER:                 -10.097
REMARK INTRA:                   1.204
REMARK UNBOUND:                 1.336
REMARK  3 active torsions:
REMARK  status: ('A' for Active; 'I' for Inactive)
REMARK    1  A    between atoms: O_2  and  C_10 
REMARK    2  A    between atoms: O_4  and  C_13 
REMARK    3  A    between atoms: C_7  and  C_9 
ROOT
ATOM      1  O   UNL d   1     -16.697  39.206  -6.918  0.00  0.00    -0.309 OA
ATOM      2  O   UNL d   1     -18.860  41.068  -7.843  0.00  0.00    -0.287 OA
ATOM      3  C   UNL d   1     -17.592  39.945  -8.204  0.00  0.00     0.081 A 
ATOM      4  C   UNL d   1     -16.871  39.324  -7.896  0.00  0.00     0.095 A 
ATOM      5  C   UNL d   1     -17.244  39.708  -6.249  0.00  0.00     0.090 A 
ATOM      6  C   UNL d   1     -18.139  40.447  -7.534  0.00  0.00     0.190 A 
ATOM      7  C   UNL d   1     -17.784  40.078  -9.219  0.00  0.00     0.085 A 
ATOM      8  C   UNL d   1     -17.965  40.329  -6.557  0.00  0.00     0.094 A 
ATOM      9  C   UNL d   1     -16.293  38.794  -8.581  0.00  0.00     0.075 A 
ATOM     10  C   UNL d   1     -16.468  38.912  -9.601  0.00  0.00     0.071 A 
ATOM     11  C   UNL d   1     -17.219  39.558  -9.922  0.00  0.00     0.074 A 
ENDROOT
BRANCH   5  12
ATOM     12  C   UNL d   1     -17.070  39.590  -5.271  0.00  0.00    -0.002 A 
ATOM     13  C   UNL d   1     -16.961  38.672  -4.890  0.00  0.00     0.014 A 
ATOM     14  C   UNL d   1     -16.788  38.553  -3.913  0.00  0.00     0.001 A 
ATOM     15  C   UNL d   1     -16.723  39.353  -3.316  0.00  0.00     0.000 A 
ATOM     16  C   UNL d   1     -16.832  40.271  -3.697  0.00  0.00     0.001 A 
ATOM     17  C   UNL d   1     -17.006  40.389  -4.674  0.00  0.00     0.014 A 
ENDBRANCH   5  12
BRANCH   7  18
ATOM     18  O   UNL d   1     -18.508  40.702  -9.515  0.00  0.00    -0.360 OA
ATOM     19  H   UNL d   1     -18.913  40.924  -9.103  0.00  0.00     0.217 HD
ENDBRANCH   7  18
BRANCH  10  20
ATOM     20  O   UNL d   1     -15.919  38.408 -10.268  0.00  0.00    -0.361 OA
ATOM     21  H   UNL d   1     -15.320  38.548 -10.345  0.00  0.00     0.217 HD
ENDBRANCH  10  20
TORSDOF 3
ENDMDL
MODEL 3
REMARK VINA RESULT:    -9.151     19.593     21.282
REMARK INTER + INTRA:          -8.885
REMARK INTER:                  -9.966
REMARK INTRA:                   1.080
REMARK UNBOUND:                 1.336
REMARK  3 active torsions:
REMARK  status: ('A' for Active; 'I' for Inactive)
REMARK    1  A    between atoms: O_2  and  C_10 
REMARK    2  A    between atoms: O_4  and  C_13 
REMARK    3  A    between atoms: C_7  and  C_9 
ROOT
ATOM      1  O   UNL d   1     -16.951  10.234   2.929  0.00  0.00    -0.309 OA
ATOM      2  O   UNL d   1     -19.310   8.547   3.695  0.00  0.00    -0.287 OA
ATOM      3  C   UNL d   1     -18.001   9.588   4.145  0.00  0.00     0.081 A 
ATOM      4  C   UNL d   1     -17.214  10.151   3.889  0.00  0.00     0.095 A 
ATOM      5  C   UNL d   1     -17.473   9.755   2.223  0.00  0.00     0.090 A 
ATOM      6  C   UNL d   1     -18.523   9.109   3.439  0.00  0.00     0.190 A 
ATOM      7  C   UNL d   1     -18.287   9.492   5.141  0.00  0.00     0.085 A 
ATOM      8  C   UNL d   1     -18.259   9.193   2.479  0.00  0.00     0.094 A 
ATOM      9  C   UNL d   1     -16.660  10.656   4.613  0.00  0.00     0.075 A 
ATOM     10  C   UNL d   1     -16.929  10.574   5.616  0.00  0.00     0.071 A 
ATOM     11  C   UNL d   1     -17.748   9.988   5.882  0.00  0.00     0.074 A 
ENDROOT
BRANCH   5  12
ATOM     12  C   UNL d   1     -17.209   9.839   1.262  0.00  0.00    -0.002 A 
ATOM     13  C   UNL d   1     -17.243  10.730   0.810  0.00  0.00     0.014 A 
ATOM     14  C   UNL d   1     -16.979  10.813  -0.151  0.00  0.00     0.001 A 
ATOM     15  C   UNL d   1     -16.681  10.006  -0.660  0.00  0.00     0.000 A 
ATOM     16  C   UNL d   1     -16.647   9.115  -0.207  0.00  0.00     0.001 A 
ATOM     17  C   UNL d   1     -16.910   9.031   0.754  0.00  0.00     0.014 A 
ENDBRANCH   5  12
BRANCH   7  18
ATOM     18  O   UNL d   1     -19.075   8.927   5.385  0.00  0.00    -0.360 OA
ATOM     19  H   UNL d   1     -19.438   8.692   4.941  0.00  0.00     0.217 HD
ENDBRANCH   7  18
BRANCH  10  20
ATOM     20  O   UNL d   1     -16.404  11.054   6.318  0.00  0.00    -0.361 OA
ATOM     21  H   UNL d   1     -16.419  11.673   6.346  0.00  0.00     0.217 HD
ENDBRANCH  10  20
TORSDOF 3
ENDMDL
MODEL 4
REMARK VINA RESULT:    -8.900     19.467     21.158
REMARK INTER + INTRA:          -8.605
REMARK INTER:                  -9.671
REMARK INTRA:                   1.066
REMARK UNBOUND:                 1.336
REMARK  3 active torsions:
REMARK  status: ('A' for Active; 'I' for Inactive)
REMARK    1  A    between atoms: O_2  and  C_10 
REMARK    2  A    between atoms: O_4  and  C_13 
REMARK    3  A    between atoms: C_7  and  C_9 
ROOT
ATOM      1  O   UNL d   1     -17.969   9.935   2.752  0.00  0.00    -0.309 OA
ATOM      2  O   UNL d   1     -16.483  10.954   5.151  0.00  0.00    -0.287 OA
ATOM      3  C   UNL d   1     -17.639   9.870   4.451  0.00  0.00     0.081 A 
ATOM      4  C   UNL d   1     -18.134   9.531   3.651  0.00  0.00     0.095 A 
ATOM      5  C   UNL d   1     -17.308  10.680   2.652  0.00  0.00     0.090 A 
ATOM      6  C   UNL d   1     -16.978  10.614   4.351  0.00  0.00     0.190 A 
ATOM      7  C   UNL d   1     -17.801   9.459   5.394  0.00  0.00     0.085 A 
ATOM      8  C   UNL d   1     -16.813  11.019   3.452  0.00  0.00     0.094 A 
ATOM      9  C   UNL d   1     -18.825   8.756   3.739  0.00  0.00     0.075 A 
ATOM     10  C   UNL d   1     -19.003   8.330   4.673  0.00  0.00     0.071 A 
ATOM     11  C   UNL d   1     -18.487   8.683   5.505  0.00  0.00     0.074 A 
ENDROOT
BRANCH   5  12
ATOM     12  C   UNL d   1     -17.143  11.084   1.753  0.00  0.00    -0.002 A 
ATOM     13  C   UNL d   1     -17.396  12.036   1.579  0.00  0.00     0.014 A 
ATOM     14  C   UNL d   1     -17.231  12.441   0.679  0.00  0.00     0.001 A 
ATOM     15  C   UNL d   1     -16.813  11.894  -0.046  0.00  0.00     0.000 A 
ATOM     16  C   UNL d   1     -16.560  10.942   0.128  0.00  0.00     0.001 A 
ATOM     17  C   UNL d   1     -16.726  10.537   1.027  0.00  0.00     0.014 A 
ENDBRANCH   5  12
BRANCH   7  18
ATOM     18  O   UNL d   1     -17.300   9.806   6.186  0.00  0.00    -0.360 OA
ATOM     19  H   UNL d   1     -17.546   9.761   6.753  0.00  0.00     0.217 HD
ENDBRANCH   7  18
BRANCH  10  20
ATOM     20  O   UNL d   1     -19.664   7.585   4.768  0.00  0.00    -0.361 OA
ATOM     21  H   UNL d   1     -19.987   7.524   5.294  0.00  0.00     0.217 HD
ENDBRANCH  10  20
TORSDOF 3
ENDMDL
MODEL 5
REMARK VINA RESULT:    -8.893     20.925     22.401
REMARK INTER + INTRA:          -8.597
REMARK INTER:                  -9.898
REMARK INTRA:                   1.302
REMARK UNBOUND:                 1.336
REMARK  3 active torsions:
REMARK  status: ('A' for Active; 'I' for Inactive)
REMARK    1  A    between atoms: O_2  and  C_10 
REMARK    2  A    between atoms: O_4  and  C_13 
REMARK    3  A    between atoms: C_7  and  C_9 
ROOT
ATOM      1  O   UNL d   1     -18.542   8.027   4.590  0.00  0.00    -0.309 OA
ATOM      2  O   UNL d   1     -18.126   9.598   2.069  0.00  0.00    -0.287 OA
ATOM      3  C   UNL d   1     -18.008   9.468   3.792  0.00  0.00     0.081 A 
ATOM      4  C   UNL d   1     -18.147   8.944   4.632  0.00  0.00     0.095 A 
ATOM      5  C   UNL d   1     -18.799   7.633   3.707  0.00  0.00     0.090 A 
ATOM      6  C   UNL d   1     -18.264   9.074   2.909  0.00  0.00     0.190 A 
ATOM      7  C   UNL d   1     -17.597  10.425   3.820  0.00  0.00     0.085 A 
ATOM      8  C   UNL d   1     -18.660   8.157   2.867  0.00  0.00     0.094 A 
ATOM      9  C   UNL d   1     -17.884   9.340   5.559  0.00  0.00     0.075 A 
ATOM     10  C   UNL d   1     -17.472  10.296   5.611  0.00  0.00     0.071 A 
ATOM     11  C   UNL d   1     -17.328  10.841   4.736  0.00  0.00     0.074 A 
ENDROOT
BRANCH   5  12
ATOM     12  C   UNL d   1     -19.194   6.715   3.665  0.00  0.00    -0.002 A 
ATOM     13  C   UNL d   1     -19.771   6.384   4.411  0.00  0.00     0.014 A 
ATOM     14  C   UNL d   1     -20.166   5.467   4.369  0.00  0.00     0.001 A 
ATOM     15  C   UNL d   1     -19.985   4.880   3.580  0.00  0.00     0.000 A 
ATOM     16  C   UNL d   1     -19.408   5.211   2.833  0.00  0.00     0.001 A 
ATOM     17  C   UNL d   1     -19.013   6.129   2.875  0.00  0.00     0.014 A 
ENDBRANCH   5  12
BRANCH   7  18
ATOM     18  O   UNL d   1     -17.463  10.939   2.974  0.00  0.00    -0.360 OA
ATOM     19  H   UNL d   1     -17.591  11.545   2.956  0.00  0.00     0.217 HD
ENDBRANCH   7  18
BRANCH  10  20
ATOM     20  O   UNL d   1     -17.217  10.686   6.496  0.00  0.00    -0.361 OA
ATOM     21  H   UNL d   1     -17.575  11.118   6.759  0.00  0.00     0.217 HD
ENDBRANCH  10  20
TORSDOF 3
ENDMDL
