MODEL 1
REMARK VINA RESULT:   -10.499      0.000      0.000
REMARK INTER + INTRA:          -2.559
REMARK INTER:                 -12.905
REMARK INTRA:                  10.346
REMARK UNBOUND:                11.009
REMARK  5 active torsions:
REMARK  status: ('A' for Active; 'I' for Inactive)
REMARK    1  A    between atoms: C_6  and  C_13 
REMARK    2  A    between atoms: C_13  and  C_19 
REMARK    3  A    between atoms: C_19  and  C_24 
REMARK    4  A    between atoms: C_24  and  C_25 
REMARK    5  A    between atoms: C_25  and  C_26 
ROOT
ATOM      1  O   UNL d   1     -17.575  39.579 -10.687  0.00  0.00    -0.293 OA
ATOM      2  C   UNL d   1     -16.802  39.557  -4.539  0.00  0.00    -0.036 A 
ATOM      3  C   UNL d   1     -17.292  40.314  -4.971  0.00  0.00    -0.002 A 
ATOM      4  C   UNL d   1     -17.421  40.325  -5.962  0.00  0.00    -0.004 A 
ATOM      5  C   UNL d   1     -17.060  39.579  -6.522  0.00  0.00     0.002 A 
ATOM      6  C   UNL d   1     -16.780  39.728  -3.560  0.00  0.00    -0.002 A 
ATOM      7  C   UNL d   1     -16.440  38.811  -5.098  0.00  0.00     0.010 A 
ATOM      8  C   UNL d   1     -17.568  40.946  -4.256  0.00  0.00     0.006 A 
ATOM      9  C   UNL d   1     -17.186  39.576  -7.556  0.00  0.00    -0.016 A 
ATOM     10  C   UNL d   1     -16.569  38.822  -6.090  0.00  0.00     0.007 A 
ATOM     11  C   UNL d   1     -17.252  40.585  -3.385  0.00  0.00     0.006 A 
ATOM     12  C   UNL d   1     -17.934  41.120  -6.398  0.00  0.00     0.010 A 
ATOM     13  C   UNL d   1     -16.312  38.800  -4.106  0.00  0.00     0.016 C 
ATOM     14  C   UNL d   1     -17.696  40.362  -8.013  0.00  0.00    -0.068 A 
ATOM     15  C   UNL d   1     -18.072  41.139  -7.431  0.00  0.00     0.035 A 
ATOM     16  C   UNL d   1     -16.785  38.756  -8.142  0.00  0.00     0.022 A 
ATOM     17  C   UNL d   1     -16.697  38.823  -7.116  0.00  0.00     0.020 C 
ATOM     18  C   UNL d   1     -16.917  38.753  -9.219  0.00  0.00     0.084 A 
ATOM     19  C   UNL d   1     -17.840  40.381  -9.088  0.00  0.00     0.053 A 
ATOM     20  C   UNL d   1     -17.447  39.571  -9.695  0.00  0.00     0.149 A 
ENDROOT
BRANCH   6  21
ATOM     21  C   UNL d   1     -16.355  39.140  -2.871  0.00  0.00    -0.014 C 
ATOM     22  C   UNL d   1     -15.370  39.192  -2.709  0.00  0.00     0.010 C 
BRANCH  21  23
ATOM     23  C   UNL d   1     -16.917  38.502  -2.344  0.00  0.00     0.005 C 
BRANCH  23  24
ATOM     24  C   UNL d   1     -16.751  38.382  -1.365  0.00  0.00     0.005 C 
BRANCH  24  25
ATOM     25  C   UNL d   1     -17.419  37.896  -0.801  0.00  0.00    -0.015 C 
ATOM     26  C   UNL d   1     -18.322  37.680  -1.172  0.00  0.00     0.010 C 
BRANCH  25  27
ATOM     27  C   UNL d   1     -17.184  37.627   0.133  0.00  0.00    -0.019 C 
ATOM     28  C   UNL d   1     -17.145  36.658   0.379  0.00  0.00     0.010 C 
ATOM     29  C   UNL d   1     -16.986  38.327   0.820  0.00  0.00     0.010 C 
ENDBRANCH  25  27
ENDBRANCH  24  25
ENDBRANCH  23  24
ENDBRANCH  21  23
ENDBRANCH   6  21
TORSDOF 5
ENDMDL
MODEL 2
REMARK VINA RESULT:   -10.139     35.289     37.256
REMARK INTER + INTRA:          -2.094
REMARK INTER:                 -12.507
REMARK INTRA:                  10.413
REMARK UNBOUND:                11.009
REMARK  5 active torsions:
REMARK  status: ('A' for Active; 'I' for Inactive)
REMARK    1  A    between atoms: C_6  and  C_13 
REMARK    2  A    between atoms: C_13  and  C_19 
REMARK    3  A    between atoms: C_19  and  C_24 
REMARK    4  A    between atoms: C_24  and  C_25 
REMARK    5  A    between atoms: C_25  and  C_26 
ROOT
ATOM      1  O   UNL d   1     -19.229   2.175 -22.452  0.00  0.00    -0.293 OA
ATOM      2  C   UNL d   1     -15.519   5.135 -18.468  0.00  0.00    -0.036 A 
ATOM      3  C   UNL d   1     -16.504   5.302 -18.440  0.00  0.00    -0.002 A 
ATOM      4  C   UNL d   1     -17.110   4.828 -19.080  0.00  0.00    -0.004 A 
ATOM      5  C   UNL d   1     -16.730   4.188 -19.747  0.00  0.00     0.002 A 
ATOM      6  C   UNL d   1     -15.096   5.693 -17.762  0.00  0.00    -0.002 A 
ATOM      7  C   UNL d   1     -15.139   4.494 -19.135  0.00  0.00     0.010 A 
ATOM      8  C   UNL d   1     -16.682   5.962 -17.718  0.00  0.00     0.006 A 
ATOM      9  C   UNL d   1     -17.348   3.687 -20.419  0.00  0.00    -0.016 A 
ATOM     10  C   UNL d   1     -15.744   4.021 -19.774  0.00  0.00     0.007 A 
ATOM     11  C   UNL d   1     -15.813   6.203 -17.300  0.00  0.00     0.006 A 
ATOM     12  C   UNL d   1     -18.135   5.013 -19.039  0.00  0.00     0.010 A 
ATOM     13  C   UNL d   1     -14.533   4.968 -18.495  0.00  0.00     0.016 C 
ATOM     14  C   UNL d   1     -18.376   3.856 -20.397  0.00  0.00    -0.068 A 
ATOM     15  C   UNL d   1     -18.772   4.523 -19.702  0.00  0.00     0.035 A 
ATOM     16  C   UNL d   1     -16.912   2.996 -21.134  0.00  0.00     0.022 A 
ATOM     17  C   UNL d   1     -16.361   3.525 -20.441  0.00  0.00     0.020 C 
ATOM     18  C   UNL d   1     -17.556   2.474 -21.835  0.00  0.00     0.084 A 
ATOM     19  C   UNL d   1     -19.039   3.346 -21.087  0.00  0.00     0.053 A 
ATOM     20  C   UNL d   1     -18.627   2.650 -21.811  0.00  0.00     0.149 A 
ENDROOT
BRANCH   6  21
ATOM     21  C   UNL d   1     -14.118   5.734 -17.554  0.00  0.00    -0.014 C 
ATOM     22  C   UNL d   1     -13.712   5.066 -16.931  0.00  0.00     0.010 C 
BRANCH  21  23
ATOM     23  C   UNL d   1     -13.548   6.444 -17.969  0.00  0.00     0.005 C 
BRANCH  23  24
ATOM     24  C   UNL d   1     -12.706   6.737 -17.515  0.00  0.00     0.005 C 
BRANCH  24  25
ATOM     25  C   UNL d   1     -12.144   7.457 -17.922  0.00  0.00    -0.015 C 
ATOM     26  C   UNL d   1     -12.546   8.089 -18.585  0.00  0.00     0.010 C 
BRANCH  25  27
ATOM     27  C   UNL d   1     -11.182   7.544 -17.666  0.00  0.00    -0.019 C 
ATOM     28  C   UNL d   1     -10.910   7.454 -16.708  0.00  0.00     0.010 C 
ATOM     29  C   UNL d   1     -10.491   7.721 -18.368  0.00  0.00     0.010 C 
ENDBRANCH  25  27
ENDBRANCH  24  25
ENDBRANCH  23  24
ENDBRANCH  21  23
ENDBRANCH   6  21
TORSDOF 5
ENDMDL
MODEL 3
REMARK VINA RESULT:   -10.096     35.189     36.976
REMARK INTER + INTRA:          -2.039
REMARK INTER:                 -12.322
REMARK INTRA:                  10.283
REMARK UNBOUND:                11.009
REMARK  5 active torsions:
REMARK  status: ('A' for Active; 'I' for Inactive)
REMARK    1  A    between atoms: C_6  and  C_13 
REMARK    2  A    between atoms: C_13  and  C_19 
REMARK    3  A    between atoms: C_19  and  C_24 
REMARK    4  A    between atoms: C_24  and  C_25 
REMARK    5  A    between atoms: C_25  and  C_26 
ROOT
ATOM      1  O   UNL d   1     -18.838   2.299 -22.099  0.00  0.00    -0.293 OA
ATOM      2  C   UNL d   1     -15.168   5.425 -18.204  0.00  0.00    -0.036 A 
ATOM      3  C   UNL d   1     -16.160   5.548 -18.153  0.00  0.00    -0.002 A 
ATOM      4  C   UNL d   1     -16.758   5.047 -18.778  0.00  0.00    -0.004 A 
ATOM      5  C   UNL d   1     -16.366   4.423 -19.454  0.00  0.00     0.002 A 
ATOM      6  C   UNL d   1     -14.754   6.001 -17.509  0.00  0.00    -0.002 A 
ATOM      7  C   UNL d   1     -14.776   4.800 -18.880  0.00  0.00     0.010 A 
ATOM      8  C   UNL d   1     -16.349   6.200 -17.428  0.00  0.00     0.006 A 
ATOM      9  C   UNL d   1     -16.977   3.895 -20.112  0.00  0.00    -0.016 A 
ATOM     10  C   UNL d   1     -15.375   4.299 -19.505  0.00  0.00     0.007 A 
ATOM     11  C   UNL d   1     -15.481   6.480 -17.030  0.00  0.00     0.006 A 
ATOM     12  C   UNL d   1     -17.789   5.187 -18.714  0.00  0.00     0.010 A 
ATOM     13  C   UNL d   1     -14.177   5.301 -18.255  0.00  0.00     0.016 C 
ATOM     14  C   UNL d   1     -18.011   4.018 -20.065  0.00  0.00    -0.068 A 
ATOM     15  C   UNL d   1     -18.420   4.669 -19.361  0.00  0.00     0.035 A 
ATOM     16  C   UNL d   1     -16.529   3.223 -20.836  0.00  0.00     0.022 A 
ATOM     17  C   UNL d   1     -15.985   3.776 -20.156  0.00  0.00     0.020 C 
ATOM     18  C   UNL d   1     -17.166   2.672 -21.521  0.00  0.00     0.084 A 
ATOM     19  C   UNL d   1     -18.668   3.479 -20.739  0.00  0.00     0.053 A 
ATOM     20  C   UNL d   1     -18.242   2.801 -21.472  0.00  0.00     0.149 A 
ENDROOT
BRANCH   6  21
ATOM     21  C   UNL d   1     -13.775   6.086 -17.324  0.00  0.00    -0.014 C 
ATOM     22  C   UNL d   1     -13.203   6.659 -17.911  0.00  0.00     0.010 C 
BRANCH  21  23
ATOM     23  C   UNL d   1     -13.368   5.597 -16.552  0.00  0.00     0.005 C 
BRANCH  23  24
ATOM     24  C   UNL d   1     -12.649   6.032 -16.008  0.00  0.00     0.005 C 
BRANCH  24  25
ATOM     25  C   UNL d   1     -12.393   5.649 -15.120  0.00  0.00    -0.015 C 
ATOM     26  C   UNL d   1     -12.417   4.659 -14.978  0.00  0.00     0.010 C 
BRANCH  25  27
ATOM     27  C   UNL d   1     -12.114   6.255 -14.377  0.00  0.00    -0.019 C 
ATOM     28  C   UNL d   1     -12.662   6.306 -13.541  0.00  0.00     0.010 C 
ATOM     29  C   UNL d   1     -11.287   6.811 -14.467  0.00  0.00     0.010 C 
ENDBRANCH  25  27
ENDBRANCH  24  25
ENDBRANCH  23  24
ENDBRANCH  21  23
ENDBRANCH   6  21
TORSDOF 5
ENDMDL
MODEL 4
REMARK VINA RESULT:   -10.033      1.415      1.633
REMARK INTER + INTRA:          -1.957
REMARK INTER:                 -12.300
REMARK INTRA:                  10.343
REMARK UNBOUND:                11.009
REMARK  5 active torsions:
REMARK  status: ('A' for Active; 'I' for Inactive)
REMARK    1  A    between atoms: C_6  and  C_13 
REMARK    2  A    between atoms: C_13  and  C_19 
REMARK    3  A    between atoms: C_19  and  C_24 
REMARK    4  A    between atoms: C_24  and  C_25 
REMARK    5  A    between atoms: C_25  and  C_26 
ROOT
ATOM      1  O   UNL d   1     -17.780  39.902 -10.693  0.00  0.00    -0.293 OA
ATOM      2  C   UNL d   1     -16.027  38.740  -4.863  0.00  0.00    -0.036 A 
ATOM      3  C   UNL d   1     -16.753  39.406  -5.036  0.00  0.00    -0.002 A 
ATOM      4  C   UNL d   1     -17.041  39.599  -5.974  0.00  0.00    -0.004 A 
ATOM      5  C   UNL d   1     -16.604  39.126  -6.739  0.00  0.00     0.002 A 
ATOM      6  C   UNL d   1     -15.887  38.690  -3.881  0.00  0.00    -0.002 A 
ATOM      7  C   UNL d   1     -15.589  38.267  -5.628  0.00  0.00     0.010 A 
ATOM      8  C   UNL d   1     -17.055  39.761  -4.159  0.00  0.00     0.006 A 
ATOM      9  C   UNL d   1     -16.894  39.317  -7.721  0.00  0.00    -0.016 A 
ATOM     10  C   UNL d   1     -15.878  38.460  -6.566  0.00  0.00     0.007 A 
ATOM     11  C   UNL d   1     -16.521  39.320  -3.445  0.00  0.00     0.006 A 
ATOM     12  C   UNL d   1     -17.799  40.295  -6.138  0.00  0.00     0.010 A 
ATOM     13  C   UNL d   1     -15.301  38.074  -4.691  0.00  0.00     0.016 C 
ATOM     14  C   UNL d   1     -17.649  40.009  -7.909  0.00  0.00    -0.068 A 
ATOM     15  C   UNL d   1     -18.105  40.501  -7.112  0.00  0.00     0.035 A 
ATOM     16  C   UNL d   1     -16.405  38.792  -8.535  0.00  0.00     0.022 A 
ATOM     17  C   UNL d   1     -16.168  38.652  -7.540  0.00  0.00     0.020 C 
ATOM     18  C   UNL d   1     -16.707  38.990  -9.558  0.00  0.00     0.084 A 
ATOM     19  C   UNL d   1     -17.968  40.224  -8.923  0.00  0.00     0.053 A 
ATOM     20  C   UNL d   1     -17.494  39.711  -9.753  0.00  0.00     0.149 A 
ENDROOT
BRANCH   6  21
ATOM     21  C   UNL d   1     -15.223  38.107  -3.411  0.00  0.00    -0.014 C 
ATOM     22  C   UNL d   1     -14.278  38.414  -3.303  0.00  0.00     0.010 C 
BRANCH  21  23
ATOM     23  C   UNL d   1     -15.506  37.218  -3.049  0.00  0.00     0.005 C 
BRANCH  23  24
ATOM     24  C   UNL d   1     -15.190  36.923  -2.147  0.00  0.00     0.005 C 
BRANCH  24  25
ATOM     25  C   UNL d   1     -15.444  36.019  -1.801  0.00  0.00    -0.015 C 
ATOM     26  C   UNL d   1     -15.896  35.362  -2.403  0.00  0.00     0.010 C 
BRANCH  25  27
ATOM     27  C   UNL d   1     -15.245  35.775  -0.852  0.00  0.00    -0.019 C 
ATOM     28  C   UNL d   1     -14.447  35.211  -0.639  0.00  0.00     0.010 C 
ATOM     29  C   UNL d   1     -15.843  36.094  -0.117  0.00  0.00     0.010 C 
ENDBRANCH  25  27
ENDBRANCH  24  25
ENDBRANCH  23  24
ENDBRANCH  21  23
ENDBRANCH   6  21
TORSDOF 5
ENDMDL
MODEL 5
REMARK VINA RESULT:    -9.854     19.259     21.390
REMARK INTER + INTRA:          -1.726
REMARK INTER:                 -12.121
REMARK INTRA:                  10.395
REMARK UNBOUND:                11.009
REMARK  5 active torsions:
REMARK  status: ('A' for Active; 'I' for Inactive)
REMARK    1  A    between atoms: C_6  and  C_13 
REMARK    2  A    between atoms: C_13  and  C_19 
REMARK    3  A    between atoms: C_19  and  C_24 
REMARK    4  A    between atoms: C_24  and  C_25 
REMARK    5  A    between atoms: C_25  and  C_26 
ROOT
ATOM      1  O   UNL d   1     -19.990  47.134  18.365  0.00  0.00    -0.293 OA
ATOM      2  C   UNL d   1     -15.980  44.354  14.544  0.00  0.00    -0.036 A 
ATOM      3  C   UNL d   1     -16.960  44.190  14.434  0.00  0.00    -0.002 A 
ATOM      4  C   UNL d   1     -17.613  44.635  15.046  0.00  0.00    -0.004 A 
ATOM      5  C   UNL d   1     -17.287  45.244  15.769  0.00  0.00     0.002 A 
ATOM      6  C   UNL d   1     -15.503  43.828  13.849  0.00  0.00    -0.002 A 
ATOM      7  C   UNL d   1     -15.653  44.962  15.268  0.00  0.00     0.010 A 
ATOM      8  C   UNL d   1     -17.080  43.565  13.670  0.00  0.00     0.006 A 
ATOM      9  C   UNL d   1     -17.955  45.714  16.415  0.00  0.00    -0.016 A 
ATOM     10  C   UNL d   1     -16.306  45.407  15.880  0.00  0.00     0.007 A 
ATOM     11  C   UNL d   1     -16.181  43.342  13.309  0.00  0.00     0.006 A 
ATOM     12  C   UNL d   1     -18.632  44.455  14.918  0.00  0.00     0.010 A 
ATOM     13  C   UNL d   1     -14.999  44.517  14.655  0.00  0.00     0.016 C 
ATOM     14  C   UNL d   1     -18.978  45.549  16.305  0.00  0.00    -0.068 A 
ATOM     15  C   UNL d   1     -19.319  44.915  15.552  0.00  0.00     0.035 A 
ATOM     16  C   UNL d   1     -17.577  46.370  17.192  0.00  0.00     0.022 A 
ATOM     17  C   UNL d   1     -16.973  45.873  16.519  0.00  0.00     0.020 C 
ATOM     18  C   UNL d   1     -18.274  46.860  17.865  0.00  0.00     0.084 A 
ATOM     19  C   UNL d   1     -19.694  46.027  16.965  0.00  0.00     0.053 A 
ATOM     20  C   UNL d   1     -19.339  46.688  17.750  0.00  0.00     0.149 A 
ENDROOT
BRANCH   6  21
ATOM     21  C   UNL d   1     -14.512  43.795  13.714  0.00  0.00    -0.014 C 
ATOM     22  C   UNL d   1     -14.060  44.492  13.158  0.00  0.00     0.010 C 
BRANCH  21  23
ATOM     23  C   UNL d   1     -13.975  43.064  14.136  0.00  0.00     0.005 C 
BRANCH  23  24
ATOM     24  C   UNL d   1     -13.107  42.782  13.727  0.00  0.00     0.005 C 
BRANCH  24  25
ATOM     25  C   UNL d   1     -12.562  42.062  14.157  0.00  0.00    -0.015 C 
ATOM     26  C   UNL d   1     -13.006  41.382  14.740  0.00  0.00     0.010 C 
BRANCH  25  27
ATOM     27  C   UNL d   1     -11.576  42.023  14.003  0.00  0.00    -0.019 C 
ATOM     28  C   UNL d   1     -11.215  42.032  13.070  0.00  0.00     0.010 C 
ATOM     29  C   UNL d   1     -10.949  41.975  14.781  0.00  0.00     0.010 C 
ENDBRANCH  25  27
ENDBRANCH  24  25
ENDBRANCH  23  24
ENDBRANCH  21  23
ENDBRANCH   6  21
TORSDOF 5
ENDMDL
