MODEL 1
REMARK VINA RESULT:    -8.435      0.000      0.000
REMARK INTER + INTRA:          -6.591
REMARK INTER:                 -10.057
REMARK INTRA:                   3.465
REMARK UNBOUND:                 3.570
REMARK  6 active torsions:
REMARK  status: ('A' for Active; 'I' for Inactive)
REMARK    1  A    between atoms: O_2  and  C_7 
REMARK    2  A    between atoms: O_3  and  C_13 
REMARK    3  A    between atoms: O_4  and  C_18 
REMARK    4  A    between atoms: O_5  and  C_19 
REMARK    5  A    between atoms: O_6  and  C_21 
REMARK    6  A    between atoms: C_8  and  C_12 
ROOT
ATOM      1  O   UNL d   1      -6.122  34.690  26.813  0.00  0.00    -0.338 OA
ATOM      2  C   UNL d   1      -6.250  36.354  26.350  0.00  0.00     0.156 A 
ATOM      3  C   UNL d   1      -6.610  35.421  26.336  0.00  0.00     0.191 A 
ATOM      4  C   UNL d   1      -5.403  36.555  26.841  0.00  0.00     0.079 A 
ATOM      5  C   UNL d   1      -4.915  35.824  27.318  0.00  0.00     0.011 A 
ATOM      6  C   UNL d   1      -5.275  34.891  27.304  0.00  0.00     0.081 A 
ATOM      7  C   UNL d   1      -4.034  36.049  27.825  0.00  0.00     0.077 A 
ATOM      8  C   UNL d   1      -4.778  34.119  27.796  0.00  0.00     0.074 A 
ATOM      9  C   UNL d   1      -3.520  35.292  28.324  0.00  0.00     0.073 A 
ATOM     10  C   UNL d   1      -3.895  34.321  28.309  0.00  0.00     0.071 A 
ENDROOT
BRANCH   3  11
ATOM     11  C   UNL d   1      -7.457  35.219  25.845  0.00  0.00    -0.024 A 
ATOM     12  C   UNL d   1      -8.334  35.255  26.325  0.00  0.00     0.049 A 
ATOM     13  C   UNL d   1      -9.182  35.054  25.834  0.00  0.00     0.099 A 
ATOM     14  C   UNL d   1      -9.152  34.816  24.863  0.00  0.00     0.098 A 
ATOM     15  C   UNL d   1      -8.276  34.780  24.383  0.00  0.00     0.040 A 
ATOM     16  C   UNL d   1      -7.428  34.982  24.874  0.00  0.00     0.013 A 
BRANCH  13  17
ATOM     17  O   UNL d   1     -10.058  35.089  26.314  0.00  0.00    -0.358 OA
ATOM     18  H   UNL d   1     -10.159  34.722  26.802  0.00  0.00     0.217 HD
ENDBRANCH  13  17
BRANCH  14  19
ATOM     19  O   UNL d   1     -10.000  34.614  24.372  0.00  0.00    -0.358 OA
ATOM     20  H   UNL d   1      -9.980  34.310  23.832  0.00  0.00     0.217 HD
ENDBRANCH  14  19
ENDBRANCH   3  11
BRANCH   2  21
ATOM     21  O   UNL d   1      -6.738  37.085  25.874  0.00  0.00    -0.392 OA
ATOM     22  H   UNL d   1      -6.717  37.120  25.255  0.00  0.00     0.210 HD
ENDBRANCH   2  21
BRANCH   7  23
ATOM     23  O   UNL d   1      -3.683  36.986  27.833  0.00  0.00    -0.360 OA
ATOM     24  H   UNL d   1      -4.072  37.462  27.758  0.00  0.00     0.217 HD
ENDBRANCH   7  23
BRANCH  10  25
ATOM     25  O   UNL d   1      -3.410  33.588  28.785  0.00  0.00    -0.361 OA
ATOM     26  H   UNL d   1      -3.647  33.342  29.301  0.00  0.00     0.217 HD
ENDBRANCH  10  25
TORSDOF 6
ENDMDL
MODEL 2
REMARK VINA RESULT:    -8.074      1.101      4.975
REMARK INTER + INTRA:          -6.156
REMARK INTER:                  -9.783
REMARK INTRA:                   3.627
REMARK UNBOUND:                 3.570
REMARK  6 active torsions:
REMARK  status: ('A' for Active; 'I' for Inactive)
REMARK    1  A    between atoms: O_2  and  C_7 
REMARK    2  A    between atoms: O_3  and  C_13 
REMARK    3  A    between atoms: O_4  and  C_18 
REMARK    4  A    between atoms: O_5  and  C_19 
REMARK    5  A    between atoms: O_6  and  C_21 
REMARK    6  A    between atoms: C_8  and  C_12 
ROOT
ATOM      1  O   UNL d   1      -6.293  34.819  26.216  0.00  0.00    -0.338 OA
ATOM      2  C   UNL d   1      -6.209  36.323  27.072  0.00  0.00     0.156 A 
ATOM      3  C   UNL d   1      -5.810  35.436  26.838  0.00  0.00     0.191 A 
ATOM      4  C   UNL d   1      -7.090  36.593  26.684  0.00  0.00     0.079 A 
ATOM      5  C   UNL d   1      -7.573  35.976  26.062  0.00  0.00     0.011 A 
ATOM      6  C   UNL d   1      -7.174  35.089  25.828  0.00  0.00     0.081 A 
ATOM      7  C   UNL d   1      -8.490  36.271  25.667  0.00  0.00     0.077 A 
ATOM      8  C   UNL d   1      -7.665  34.436  25.182  0.00  0.00     0.074 A 
ATOM      9  C   UNL d   1      -8.998  35.634  25.018  0.00  0.00     0.073 A 
ATOM     10  C   UNL d   1      -8.583  34.711  24.774  0.00  0.00     0.071 A 
ENDROOT
BRANCH   3  11
ATOM     11  C   UNL d   1      -4.929  35.166  27.225  0.00  0.00    -0.024 A 
ATOM     12  C   UNL d   1      -4.089  35.616  26.920  0.00  0.00     0.049 A 
ATOM     13  C   UNL d   1      -3.208  35.346  27.307  0.00  0.00     0.099 A 
ATOM     14  C   UNL d   1      -3.166  34.626  28.000  0.00  0.00     0.098 A 
ATOM     15  C   UNL d   1      -4.005  34.176  28.306  0.00  0.00     0.040 A 
ATOM     16  C   UNL d   1      -4.886  34.446  27.918  0.00  0.00     0.013 A 
BRANCH  13  17
ATOM     17  O   UNL d   1      -2.368  35.795  27.002  0.00  0.00    -0.358 OA
ATOM     18  H   UNL d   1      -2.251  36.380  27.171  0.00  0.00     0.217 HD
ENDBRANCH  13  17
BRANCH  14  19
ATOM     19  O   UNL d   1      -2.284  34.356  28.388  0.00  0.00    -0.358 OA
ATOM     20  H   UNL d   1      -2.096  33.766  28.349  0.00  0.00     0.217 HD
ENDBRANCH  14  19
ENDBRANCH   3  11
BRANCH   2  21
ATOM     21  O   UNL d   1      -5.726  36.939  27.694  0.00  0.00    -0.392 OA
ATOM     22  H   UNL d   1      -5.394  36.708  28.163  0.00  0.00     0.210 HD
ENDBRANCH   2  21
BRANCH   7  23
ATOM     23  O   UNL d   1      -8.879  37.160  25.908  0.00  0.00    -0.360 OA
ATOM     24  H   UNL d   1      -8.521  37.665  25.906  0.00  0.00     0.217 HD
ENDBRANCH   7  23
BRANCH  10  25
ATOM     25  O   UNL d   1      -9.063  34.092  24.153  0.00  0.00    -0.361 OA
ATOM     26  H   UNL d   1      -8.809  33.940  23.609  0.00  0.00     0.217 HD
ENDBRANCH  10  25
TORSDOF 6
ENDMDL
MODEL 3
REMARK VINA RESULT:    -8.008      0.894      1.962
REMARK INTER + INTRA:          -6.077
REMARK INTER:                  -9.538
REMARK INTRA:                   3.462
REMARK UNBOUND:                 3.570
REMARK  6 active torsions:
REMARK  status: ('A' for Active; 'I' for Inactive)
REMARK    1  A    between atoms: O_2  and  C_7 
REMARK    2  A    between atoms: O_3  and  C_13 
REMARK    3  A    between atoms: O_4  and  C_18 
REMARK    4  A    between atoms: O_5  and  C_19 
REMARK    5  A    between atoms: O_6  and  C_21 
REMARK    6  A    between atoms: C_8  and  C_12 
ROOT
ATOM      1  O   UNL d   1      -6.231  35.129  26.617  0.00  0.00    -0.338 OA
ATOM      2  C   UNL d   1      -6.704  33.514  27.027  0.00  0.00     0.156 A 
ATOM      3  C   UNL d   1      -6.878  34.370  26.541  0.00  0.00     0.191 A 
ATOM      4  C   UNL d   1      -5.882  33.416  27.589  0.00  0.00     0.079 A 
ATOM      5  C   UNL d   1      -5.235  34.175  27.664  0.00  0.00     0.011 A 
ATOM      6  C   UNL d   1      -5.410  35.031  27.178  0.00  0.00     0.081 A 
ATOM      7  C   UNL d   1      -4.384  34.059  28.253  0.00  0.00     0.077 A 
ATOM      8  C   UNL d   1      -4.745  35.830  27.247  0.00  0.00     0.074 A 
ATOM      9  C   UNL d   1      -3.705  34.844  28.336  0.00  0.00     0.073 A 
ATOM     10  C   UNL d   1      -3.887  35.736  27.831  0.00  0.00     0.071 A 
ENDROOT
BRANCH   3  11
ATOM     11  C   UNL d   1      -7.700  34.468  25.979  0.00  0.00    -0.024 A 
ATOM     12  C   UNL d   1      -8.543  34.821  26.384  0.00  0.00     0.049 A 
ATOM     13  C   UNL d   1      -9.365  34.919  25.823  0.00  0.00     0.099 A 
ATOM     14  C   UNL d   1      -9.343  34.663  24.856  0.00  0.00     0.098 A 
ATOM     15  C   UNL d   1      -8.500  34.310  24.451  0.00  0.00     0.040 A 
ATOM     16  C   UNL d   1      -7.678  34.213  25.013  0.00  0.00     0.013 A 
BRANCH  13  17
ATOM     17  O   UNL d   1     -10.208  35.272  26.228  0.00  0.00    -0.358 OA
ATOM     18  H   UNL d   1     -10.198  35.798  26.555  0.00  0.00     0.217 HD
ENDBRANCH  13  17
BRANCH  14  19
ATOM     19  O   UNL d   1     -10.165  34.761  24.294  0.00  0.00    -0.358 OA
ATOM     20  H   UNL d   1     -10.113  34.859  23.684  0.00  0.00     0.217 HD
ENDBRANCH  14  19
ENDBRANCH   3  11
BRANCH   2  21
ATOM     21  O   UNL d   1      -7.351  32.755  26.951  0.00  0.00    -0.392 OA
ATOM     22  H   UNL d   1      -7.205  32.199  27.182  0.00  0.00     0.210 HD
ENDBRANCH   2  21
BRANCH   7  23
ATOM     23  O   UNL d   1      -4.220  33.198  28.734  0.00  0.00    -0.360 OA
ATOM     24  H   UNL d   1      -4.455  32.669  28.512  0.00  0.00     0.217 HD
ENDBRANCH   7  23
BRANCH  10  25
ATOM     25  O   UNL d   1      -3.242  36.496  27.904  0.00  0.00    -0.361 OA
ATOM     26  H   UNL d   1      -3.443  37.060  28.065  0.00  0.00     0.217 HD
ENDBRANCH  10  25
TORSDOF 6
ENDMDL
MODEL 4
REMARK VINA RESULT:    -7.992      1.088      5.028
REMARK INTER + INTRA:          -6.058
REMARK INTER:                  -9.523
REMARK INTRA:                   3.465
REMARK UNBOUND:                 3.570
REMARK  6 active torsions:
REMARK  status: ('A' for Active; 'I' for Inactive)
REMARK    1  A    between atoms: O_2  and  C_7 
REMARK    2  A    between atoms: O_3  and  C_13 
REMARK    3  A    between atoms: O_4  and  C_18 
REMARK    4  A    between atoms: O_5  and  C_19 
REMARK    5  A    between atoms: O_6  and  C_21 
REMARK    6  A    between atoms: C_8  and  C_12 
ROOT
ATOM      1  O   UNL d   1      -7.522  35.559  27.226  0.00  0.00    -0.338 OA
ATOM      2  C   UNL d   1      -6.866  35.561  25.623  0.00  0.00     0.156 A 
ATOM      3  C   UNL d   1      -6.733  35.596  26.613  0.00  0.00     0.191 A 
ATOM      4  C   UNL d   1      -7.789  35.490  25.245  0.00  0.00     0.079 A 
ATOM      5  C   UNL d   1      -8.579  35.453  25.857  0.00  0.00     0.011 A 
ATOM      6  C   UNL d   1      -8.445  35.488  26.847  0.00  0.00     0.081 A 
ATOM      7  C   UNL d   1      -9.534  35.379  25.449  0.00  0.00     0.077 A 
ATOM      8  C   UNL d   1      -9.258  35.450  27.498  0.00  0.00     0.074 A 
ATOM      9  C   UNL d   1     -10.361  35.341  26.080  0.00  0.00     0.073 A 
ATOM     10  C   UNL d   1     -10.223  35.376  27.112  0.00  0.00     0.071 A 
ENDROOT
BRANCH   3  11
ATOM     11  C   UNL d   1      -5.810  35.667  26.992  0.00  0.00    -0.024 A 
ATOM     12  C   UNL d   1      -5.383  36.564  27.105  0.00  0.00     0.049 A 
ATOM     13  C   UNL d   1      -4.461  36.635  27.483  0.00  0.00     0.099 A 
ATOM     14  C   UNL d   1      -3.964  35.809  27.748  0.00  0.00     0.098 A 
ATOM     15  C   UNL d   1      -4.390  34.912  27.635  0.00  0.00     0.040 A 
ATOM     16  C   UNL d   1      -5.313  34.840  27.257  0.00  0.00     0.013 A 
BRANCH  13  17
ATOM     17  O   UNL d   1      -4.034  37.533  27.596  0.00  0.00    -0.358 OA
ATOM     18  H   UNL d   1      -3.494  37.657  27.318  0.00  0.00     0.217 HD
ENDBRANCH  13  17
BRANCH  14  19
ATOM     19  O   UNL d   1      -3.041  35.880  28.126  0.00  0.00    -0.358 OA
ATOM     20  H   UNL d   1      -2.947  36.184  28.659  0.00  0.00     0.217 HD
ENDBRANCH  14  19
ENDBRANCH   3  11
BRANCH   2  21
ATOM     21  O   UNL d   1      -6.076  35.598  25.011  0.00  0.00    -0.392 OA
ATOM     22  H   UNL d   1      -5.647  35.151  25.031  0.00  0.00     0.210 HD
ENDBRANCH   2  21
BRANCH   7  23
ATOM     23  O   UNL d   1      -9.655  35.346  24.457  0.00  0.00    -0.360 OA
ATOM     24  H   UNL d   1      -9.197  35.531  24.082  0.00  0.00     0.217 HD
ENDBRANCH   7  23
BRANCH  10  25
ATOM     25  O   UNL d   1     -11.010  35.340  27.726  0.00  0.00    -0.361 OA
ATOM     26  H   UNL d   1     -11.254  35.864  27.949  0.00  0.00     0.217 HD
ENDBRANCH  10  25
TORSDOF 6
ENDMDL
MODEL 5
REMARK VINA RESULT:    -7.807      3.166      4.553
REMARK INTER + INTRA:          -5.834
REMARK INTER:                  -9.297
REMARK INTRA:                   3.462
REMARK UNBOUND:                 3.570
REMARK  6 active torsions:
REMARK  status: ('A' for Active; 'I' for Inactive)
REMARK    1  A    between atoms: O_2  and  C_7 
REMARK    2  A    between atoms: O_3  and  C_13 
REMARK    3  A    between atoms: O_4  and  C_18 
REMARK    4  A    between atoms: O_5  and  C_19 
REMARK    5  A    between atoms: O_6  and  C_21 
REMARK    6  A    between atoms: C_8  and  C_12 
ROOT
ATOM      1  O   UNL d   1      -8.655  34.679  27.421  0.00  0.00    -0.338 OA
ATOM      2  C   UNL d   1      -9.977  35.119  26.392  0.00  0.00     0.156 A 
ATOM      3  C   UNL d   1      -9.001  34.943  26.521  0.00  0.00     0.191 A 
ATOM      4  C   UNL d   1     -10.607  35.031  27.164  0.00  0.00     0.079 A 
ATOM      5  C   UNL d   1     -10.260  34.767  28.064  0.00  0.00     0.011 A 
ATOM      6  C   UNL d   1      -9.284  34.591  28.193  0.00  0.00     0.081 A 
ATOM      7  C   UNL d   1     -10.928  34.679  28.859  0.00  0.00     0.077 A 
ATOM      8  C   UNL d   1      -8.908  34.315  29.124  0.00  0.00     0.074 A 
ATOM      9  C   UNL d   1     -10.574  34.405  29.799  0.00  0.00     0.073 A 
ATOM     10  C   UNL d   1      -9.558  34.222  29.933  0.00  0.00     0.071 A 
ENDROOT
BRANCH   3  11
ATOM     11  C   UNL d   1      -8.371  35.032  25.749  0.00  0.00    -0.024 A 
ATOM     12  C   UNL d   1      -8.209  34.252  25.144  0.00  0.00     0.049 A 
ATOM     13  C   UNL d   1      -7.579  34.340  24.373  0.00  0.00     0.099 A 
ATOM     14  C   UNL d   1      -7.112  35.208  24.205  0.00  0.00     0.098 A 
ATOM     15  C   UNL d   1      -7.274  35.988  24.810  0.00  0.00     0.040 A 
ATOM     16  C   UNL d   1      -7.904  35.900  25.582  0.00  0.00     0.013 A 
BRANCH  13  17
ATOM     17  O   UNL d   1      -7.417  33.560  23.768  0.00  0.00    -0.358 OA
ATOM     18  H   UNL d   1      -7.489  33.623  23.155  0.00  0.00     0.217 HD
ENDBRANCH  13  17
BRANCH  14  19
ATOM     19  O   UNL d   1      -6.482  35.296  23.434  0.00  0.00    -0.358 OA
ATOM     20  H   UNL d   1      -6.630  35.051  22.883  0.00  0.00     0.217 HD
ENDBRANCH  14  19
ENDBRANCH   3  11
BRANCH   2  21
ATOM     21  O   UNL d   1     -10.323  35.383  25.492  0.00  0.00    -0.392 OA
ATOM     22  H   UNL d   1     -10.019  35.806  25.155  0.00  0.00     0.210 HD
ENDBRANCH   2  21
BRANCH   7  23
ATOM     23  O   UNL d   1     -11.902  34.858  28.719  0.00  0.00    -0.360 OA
ATOM     24  H   UNL d   1     -12.320  34.426  28.869  0.00  0.00     0.217 HD
ENDBRANCH   7  23
BRANCH  10  25
ATOM     25  O   UNL d   1      -9.209  33.958  30.832  0.00  0.00    -0.361 OA
ATOM     26  H   UNL d   1      -9.172  34.377  31.286  0.00  0.00     0.217 HD
ENDBRANCH  10  25
TORSDOF 6
ENDMDL
