MODEL 1
REMARK VINA RESULT:   -10.112      0.000      0.000
REMARK INTER + INTRA:          -5.794
REMARK INTER:                 -15.752
REMARK INTRA:                   9.959
REMARK UNBOUND:                10.230
REMARK  14 active torsions:
REMARK  status: ('A' for Active; 'I' for Inactive)
REMARK    1  A    between atoms: C_15  and  O_1 
REMARK    2  A    between atoms: C_18  and  O_1 
REMARK    3  A    between atoms: C_16  and  O_4 
REMARK    4  A    between atoms: C_20  and  O_5 
REMARK    5  A    between atoms: O_5  and  C_27 
REMARK    6  A    between atoms: C_17  and  O_6 
REMARK    7  A    between atoms: C_19  and  O_7 
REMARK    8  A    between atoms: C_22  and  O_8 
REMARK    9  A    between atoms: C_23  and  O_9 
REMARK   10  A    between atoms: O_10  and  C_25 
REMARK   11  A    between atoms: O_12  and  C_31 
REMARK   12  A    between atoms: O_14  and  C_41 
REMARK   13  A    between atoms: C_21  and  C_25 
REMARK   14  A    between atoms: C_34  and  C_36 
ROOT
ATOM      1  O   UNL d   1      -4.928  34.573  27.481  0.00  0.00    -0.348 OA
ATOM      2  C   UNL d   1      -6.265  35.646  27.230  0.00  0.00     0.211 A 
ATOM      3  C   UNL d   1      -5.638  36.426  27.228  0.00  0.00     0.183 A 
ATOM      4  C   UNL d   1      -4.657  36.279  27.353  0.00  0.00     0.180 A 
ATOM      5  C   UNL d   1      -5.910  34.720  27.356  0.00  0.00     0.298 A 
ATOM      6  C   UNL d   1      -4.302  35.353  27.479  0.00  0.00     0.179 A 
ENDROOT
BRANCH   5   7
ATOM      7  O   UNL d   1      -6.536  33.941  27.358  0.00  0.00    -0.318 OA
BRANCH   7   8
ATOM      8  C   UNL d   1      -6.356  33.156  27.951  0.00  0.00     0.077 A 
ATOM      9  C   UNL d   1      -5.894  32.303  27.568  0.00  0.00     0.075 A 
ATOM     10  C   UNL d   1      -5.712  31.492  28.195  0.00  0.00     0.095 A 
ATOM     11  O   UNL d   1      -5.269  30.678  27.820  0.00  0.00    -0.309 OA
ATOM     12  C   UNL d   1      -5.973  31.519  29.160  0.00  0.00     0.081 A 
ATOM     13  C   UNL d   1      -5.087  29.891  28.410  0.00  0.00     0.090 A 
ATOM     14  C   UNL d   1      -5.348  29.919  29.375  0.00  0.00     0.094 A 
ATOM     15  C   UNL d   1      -5.791  30.733  29.750  0.00  0.00     0.190 A 
ATOM     16  O   UNL d   1      -6.052  30.761  30.715  0.00  0.00    -0.287 OA
ATOM     17  C   UNL d   1      -6.435  32.361  29.565  0.00  0.00     0.085 A 
ATOM     18  C   UNL d   1      -6.627  33.184  28.957  0.00  0.00     0.074 A 
BRANCH  13  19
ATOM     19  C   UNL d   1      -4.644  29.076  28.035  0.00  0.00    -0.002 A 
ATOM     20  C   UNL d   1      -3.741  28.800  28.366  0.00  0.00     0.017 A 
ATOM     21  C   UNL d   1      -3.299  27.986  27.991  0.00  0.00     0.037 A 
ATOM     22  C   UNL d   1      -3.759  27.447  27.285  0.00  0.00     0.065 A 
ATOM     23  C   UNL d   1      -4.661  27.723  26.954  0.00  0.00     0.037 A 
ATOM     24  C   UNL d   1      -5.104  28.538  27.329  0.00  0.00     0.017 A 
BRANCH  22  25
ATOM     25  O   UNL d   1      -3.315  26.632  26.911  0.00  0.00    -0.361 OA
ATOM     26  H   UNL d   1      -3.018  26.664  26.368  0.00  0.00     0.217 HD
ENDBRANCH  22  25
ENDBRANCH  13  19
BRANCH  17  27
ATOM     27  O   UNL d   1      -6.692  32.378  30.531  0.00  0.00    -0.360 OA
ATOM     28  H   UNL d   1      -7.090  31.957  30.753  0.00  0.00     0.217 HD
ENDBRANCH  17  27
ENDBRANCH   7   8
ENDBRANCH   5   7
BRANCH   2  29
ATOM     29  O   UNL d   1      -7.246  35.793  27.106  0.00  0.00    -0.346 OA
BRANCH  29  30
ATOM     30  C   UNL d   1      -7.634  35.827  26.185  0.00  0.00     0.292 A 
ATOM     31  O   UNL d   1      -7.137  35.420  25.418  0.00  0.00    -0.351 OA
ATOM     32  C   UNL d   1      -7.525  35.454  24.497  0.00  0.00     0.152 A 
ATOM     33  C   UNL d   1      -8.409  35.895  24.342  0.00  0.00     0.178 A 
ATOM     34  C   UNL d   1      -7.029  35.046  23.730  0.00  0.00     0.042 C 
ATOM     35  C   UNL d   1      -8.905  36.302  25.109  0.00  0.00     0.183 A 
ATOM     36  C   UNL d   1      -8.518  36.268  26.030  0.00  0.00     0.204 A 
BRANCH  33  37
ATOM     37  O   UNL d   1      -8.797  35.929  23.421  0.00  0.00    -0.390 OA
ATOM     38  H   UNL d   1      -9.100  35.438  23.194  0.00  0.00     0.210 HD
ENDBRANCH  33  37
BRANCH  35  39
ATOM     39  O   UNL d   1      -9.789  36.743  24.954  0.00  0.00    -0.390 OA
ATOM     40  H   UNL d   1     -10.184  36.820  25.426  0.00  0.00     0.210 HD
ENDBRANCH  35  39
BRANCH  36  41
ATOM     41  O   UNL d   1      -9.014  36.675  26.797  0.00  0.00    -0.388 OA
ATOM     42  H   UNL d   1      -9.451  37.103  26.691  0.00  0.00     0.210 HD
ENDBRANCH  36  41
ENDBRANCH  29  30
ENDBRANCH   2  29
BRANCH   6  43
ATOM     43  C   UNL d   1      -3.321  35.206  27.603  0.00  0.00     0.198 C 
BRANCH  43  44
ATOM     44  O   UNL d   1      -2.804  34.680  26.928  0.00  0.00    -0.398 OA
ATOM     45  H   UNL d   1      -2.693  34.920  26.367  0.00  0.00     0.209 HD
ENDBRANCH  43  44
ENDBRANCH   6  43
BRANCH   3  46
ATOM     46  O   UNL d   1      -5.994  37.352  27.102  0.00  0.00    -0.390 OA
ATOM     47  H   UNL d   1      -5.632  37.842  27.222  0.00  0.00     0.210 HD
ENDBRANCH   3  46
BRANCH   4  48
ATOM     48  O   UNL d   1      -4.031  37.059  27.351  0.00  0.00    -0.390 OA
ATOM     49  H   UNL d   1      -3.460  36.998  27.585  0.00  0.00     0.210 HD
ENDBRANCH   4  48
TORSDOF 14
ENDMDL
MODEL 2
REMARK VINA RESULT:   -10.097      2.971      5.426
REMARK INTER + INTRA:          -5.770
REMARK INTER:                 -15.539
REMARK INTRA:                   9.769
REMARK UNBOUND:                10.230
REMARK  14 active torsions:
REMARK  status: ('A' for Active; 'I' for Inactive)
REMARK    1  A    between atoms: C_15  and  O_1 
REMARK    2  A    between atoms: C_18  and  O_1 
REMARK    3  A    between atoms: C_16  and  O_4 
REMARK    4  A    between atoms: C_20  and  O_5 
REMARK    5  A    between atoms: O_5  and  C_27 
REMARK    6  A    between atoms: C_17  and  O_6 
REMARK    7  A    between atoms: C_19  and  O_7 
REMARK    8  A    between atoms: C_22  and  O_8 
REMARK    9  A    between atoms: C_23  and  O_9 
REMARK   10  A    between atoms: O_10  and  C_25 
REMARK   11  A    between atoms: O_12  and  C_31 
REMARK   12  A    between atoms: O_14  and  C_41 
REMARK   13  A    between atoms: C_21  and  C_25 
REMARK   14  A    between atoms: C_34  and  C_36 
ROOT
ATOM      1  O   UNL d   1      -8.618  35.295  25.831  0.00  0.00    -0.348 OA
ATOM      2  C   UNL d   1      -7.051  35.990  26.084  0.00  0.00     0.211 A 
ATOM      3  C   UNL d   1      -6.811  35.795  25.133  0.00  0.00     0.183 A 
ATOM      4  C   UNL d   1      -7.474  35.350  24.531  0.00  0.00     0.180 A 
ATOM      5  C   UNL d   1      -7.955  35.740  26.433  0.00  0.00     0.298 A 
ATOM      6  C   UNL d   1      -8.378  35.100  24.880  0.00  0.00     0.179 A 
ENDROOT
BRANCH   5   7
ATOM      7  O   UNL d   1      -8.195  35.935  27.384  0.00  0.00    -0.318 OA
BRANCH   7   8
ATOM      8  C   UNL d   1      -8.967  35.464  27.811  0.00  0.00     0.077 A 
ATOM      9  C   UNL d   1      -8.825  34.547  28.286  0.00  0.00     0.075 A 
ATOM     10  C   UNL d   1      -9.636  34.067  28.727  0.00  0.00     0.095 A 
ATOM     11  O   UNL d   1      -9.493  33.187  29.180  0.00  0.00    -0.309 OA
ATOM     12  C   UNL d   1     -10.550  34.472  28.703  0.00  0.00     0.081 A 
ATOM     13  C   UNL d   1     -10.262  32.713  29.609  0.00  0.00     0.090 A 
ATOM     14  C   UNL d   1     -11.175  33.119  29.584  0.00  0.00     0.094 A 
ATOM     15  C   UNL d   1     -11.320  33.999  29.131  0.00  0.00     0.190 A 
ATOM     16  O   UNL d   1     -12.233  34.405  29.107  0.00  0.00    -0.287 OA
ATOM     17  C   UNL d   1     -10.715  35.389  28.234  0.00  0.00     0.085 A 
ATOM     18  C   UNL d   1      -9.919  35.887  27.786  0.00  0.00     0.074 A 
BRANCH  13  19
ATOM     19  C   UNL d   1     -10.119  31.833  30.062  0.00  0.00    -0.002 A 
ATOM     20  C   UNL d   1      -9.942  31.800  31.046  0.00  0.00     0.017 A 
ATOM     21  C   UNL d   1      -9.798  30.920  31.498  0.00  0.00     0.037 A 
ATOM     22  C   UNL d   1      -9.832  30.073  30.968  0.00  0.00     0.065 A 
ATOM     23  C   UNL d   1     -10.009  30.106  29.984  0.00  0.00     0.037 A 
ATOM     24  C   UNL d   1     -10.152  30.986  29.531  0.00  0.00     0.017 A 
BRANCH  22  25
ATOM     25  O   UNL d   1      -9.688  29.193  31.421  0.00  0.00    -0.361 OA
ATOM     26  H   UNL d   1      -9.283  29.148  31.888  0.00  0.00     0.217 HD
ENDBRANCH  22  25
ENDBRANCH  13  19
BRANCH  17  27
ATOM     27  O   UNL d   1     -11.633  35.785  28.216  0.00  0.00    -0.360 OA
ATOM     28  H   UNL d   1     -12.117  35.455  28.420  0.00  0.00     0.217 HD
ENDBRANCH  17  27
ENDBRANCH   7   8
ENDBRANCH   5   7
BRANCH   2  29
ATOM     29  O   UNL d   1      -6.388  36.434  26.686  0.00  0.00    -0.346 OA
BRANCH  29  30
ATOM     30  C   UNL d   1      -5.655  35.899  27.106  0.00  0.00     0.292 A 
ATOM     31  O   UNL d   1      -5.754  34.908  27.204  0.00  0.00    -0.351 OA
ATOM     32  C   UNL d   1      -5.021  34.372  27.623  0.00  0.00     0.152 A 
ATOM     33  C   UNL d   1      -4.190  34.827  27.944  0.00  0.00     0.178 A 
ATOM     34  C   UNL d   1      -5.119  33.382  27.722  0.00  0.00     0.042 C 
ATOM     35  C   UNL d   1      -4.092  35.817  27.846  0.00  0.00     0.183 A 
ATOM     36  C   UNL d   1      -4.824  36.353  27.426  0.00  0.00     0.204 A 
BRANCH  33  37
ATOM     37  O   UNL d   1      -3.457  34.291  28.363  0.00  0.00    -0.390 OA
ATOM     38  H   UNL d   1      -3.486  34.143  28.965  0.00  0.00     0.210 HD
ENDBRANCH  33  37
BRANCH  35  39
ATOM     39  O   UNL d   1      -3.261  36.271  28.167  0.00  0.00    -0.390 OA
ATOM     40  H   UNL d   1      -3.150  36.322  28.774  0.00  0.00     0.210 HD
ENDBRANCH  35  39
BRANCH  36  41
ATOM     41  O   UNL d   1      -4.726  37.343  27.328  0.00  0.00    -0.388 OA
ATOM     42  H   UNL d   1      -4.855  37.615  26.786  0.00  0.00     0.210 HD
ENDBRANCH  36  41
ENDBRANCH  29  30
ENDBRANCH   2  29
BRANCH   6  43
ATOM     43  C   UNL d   1      -9.041  34.655  24.278  0.00  0.00     0.198 C 
BRANCH  43  44
ATOM     44  O   UNL d   1     -10.011  34.650  24.521  0.00  0.00    -0.398 OA
ATOM     45  H   UNL d   1     -10.191  34.434  25.073  0.00  0.00     0.209 HD
ENDBRANCH  43  44
ENDBRANCH   6  43
BRANCH   3  46
ATOM     46  O   UNL d   1      -5.908  36.044  24.784  0.00  0.00    -0.390 OA
ATOM     47  H   UNL d   1      -5.617  35.672  24.383  0.00  0.00     0.210 HD
ENDBRANCH   3  46
BRANCH   4  48
ATOM     48  O   UNL d   1      -7.234  35.155  23.580  0.00  0.00    -0.390 OA
ATOM     49  H   UNL d   1      -7.172  35.620  23.175  0.00  0.00     0.210 HD
ENDBRANCH   4  48
TORSDOF 14
ENDMDL
MODEL 3
REMARK VINA RESULT:    -9.667      2.259      4.156
REMARK INTER + INTRA:          -5.089
REMARK INTER:                 -15.014
REMARK INTRA:                   9.925
REMARK UNBOUND:                10.230
REMARK  14 active torsions:
REMARK  status: ('A' for Active; 'I' for Inactive)
REMARK    1  A    between atoms: C_15  and  O_1 
REMARK    2  A    between atoms: C_18  and  O_1 
REMARK    3  A    between atoms: C_16  and  O_4 
REMARK    4  A    between atoms: C_20  and  O_5 
REMARK    5  A    between atoms: O_5  and  C_27 
REMARK    6  A    between atoms: C_17  and  O_6 
REMARK    7  A    between atoms: C_19  and  O_7 
REMARK    8  A    between atoms: C_22  and  O_8 
REMARK    9  A    between atoms: C_23  and  O_9 
REMARK   10  A    between atoms: O_10  and  C_25 
REMARK   11  A    between atoms: O_12  and  C_31 
REMARK   12  A    between atoms: O_14  and  C_41 
REMARK   13  A    between atoms: C_21  and  C_25 
REMARK   14  A    between atoms: C_34  and  C_36 
ROOT
ATOM      1  O   UNL d   1      -7.961  33.793  28.535  0.00  0.00    -0.348 OA
ATOM      2  C   UNL d   1      -7.584  35.158  27.539  0.00  0.00     0.211 A 
ATOM      3  C   UNL d   1      -8.265  35.703  28.027  0.00  0.00     0.183 A 
ATOM      4  C   UNL d   1      -8.795  35.292  28.769  0.00  0.00     0.180 A 
ATOM      5  C   UNL d   1      -7.431  34.203  27.793  0.00  0.00     0.298 A 
ATOM      6  C   UNL d   1      -8.643  34.337  29.024  0.00  0.00     0.179 A 
ENDROOT
BRANCH   5   7
ATOM      7  O   UNL d   1      -6.750  33.658  27.305  0.00  0.00    -0.318 OA
BRANCH   7   8
ATOM      8  C   UNL d   1      -6.068  33.136  27.816  0.00  0.00     0.077 A 
ATOM      9  C   UNL d   1      -5.221  33.609  28.198  0.00  0.00     0.075 A 
ATOM     10  C   UNL d   1      -4.518  33.055  28.728  0.00  0.00     0.095 A 
ATOM     11  O   UNL d   1      -3.708  33.516  29.092  0.00  0.00    -0.309 OA
ATOM     12  C   UNL d   1      -4.643  32.073  28.878  0.00  0.00     0.081 A 
ATOM     13  C   UNL d   1      -3.024  32.996  29.603  0.00  0.00     0.090 A 
ATOM     14  C   UNL d   1      -3.149  32.016  29.752  0.00  0.00     0.094 A 
ATOM     15  C   UNL d   1      -3.959  31.554  29.390  0.00  0.00     0.190 A 
ATOM     16  O   UNL d   1      -4.084  30.573  29.539  0.00  0.00    -0.287 OA
ATOM     17  C   UNL d   1      -5.481  31.579  28.506  0.00  0.00     0.085 A 
ATOM     18  C   UNL d   1      -6.198  32.114  27.972  0.00  0.00     0.074 A 
BRANCH  13  19
ATOM     19  C   UNL d   1      -2.214  33.458  29.967  0.00  0.00    -0.002 A 
ATOM     20  C   UNL d   1      -2.229  33.842  30.889  0.00  0.00     0.017 A 
ATOM     21  C   UNL d   1      -1.419  34.303  31.252  0.00  0.00     0.037 A 
ATOM     22  C   UNL d   1      -0.594  34.380  30.692  0.00  0.00     0.065 A 
ATOM     23  C   UNL d   1      -0.579  33.995  29.769  0.00  0.00     0.037 A 
ATOM     24  C   UNL d   1      -1.389  33.534  29.406  0.00  0.00     0.017 A 
BRANCH  22  25
ATOM     25  O   UNL d   1       0.216  34.841  31.055  0.00  0.00    -0.361 OA
ATOM     26  H   UNL d   1       0.431  34.692  31.617  0.00  0.00     0.217 HD
ENDBRANCH  22  25
ENDBRANCH  13  19
BRANCH  17  27
ATOM     27  O   UNL d   1      -5.596  30.598  28.661  0.00  0.00    -0.360 OA
ATOM     28  H   UNL d   1      -6.165  30.350  28.670  0.00  0.00     0.217 HD
ENDBRANCH  17  27
ENDBRANCH   7   8
ENDBRANCH   5   7
BRANCH   2  29
ATOM     29  O   UNL d   1      -7.054  35.568  26.796  0.00  0.00    -0.346 OA
BRANCH  29  30
ATOM     30  C   UNL d   1      -7.377  35.497  25.853  0.00  0.00     0.292 A 
ATOM     31  O   UNL d   1      -8.355  35.407  25.665  0.00  0.00    -0.351 OA
ATOM     32  C   UNL d   1      -8.679  35.336  24.721  0.00  0.00     0.152 A 
ATOM     33  C   UNL d   1      -8.024  35.353  23.966  0.00  0.00     0.178 A 
ATOM     34  C   UNL d   1      -9.657  35.246  24.533  0.00  0.00     0.042 C 
ATOM     35  C   UNL d   1      -7.046  35.442  24.154  0.00  0.00     0.183 A 
ATOM     36  C   UNL d   1      -6.722  35.514  25.097  0.00  0.00     0.204 A 
BRANCH  33  37
ATOM     37  O   UNL d   1      -8.347  35.281  23.022  0.00  0.00    -0.390 OA
ATOM     38  H   UNL d   1      -8.889  35.005  22.900  0.00  0.00     0.210 HD
ENDBRANCH  33  37
BRANCH  35  39
ATOM     39  O   UNL d   1      -6.391  35.460  23.398  0.00  0.00    -0.390 OA
ATOM     40  H   UNL d   1      -6.020  34.973  23.298  0.00  0.00     0.210 HD
ENDBRANCH  35  39
BRANCH  36  41
ATOM     41  O   UNL d   1      -5.744  35.603  25.285  0.00  0.00    -0.388 OA
ATOM     42  H   UNL d   1      -5.552  35.802  25.841  0.00  0.00     0.210 HD
ENDBRANCH  36  41
ENDBRANCH  29  30
ENDBRANCH   2  29
BRANCH   6  43
ATOM     43  C   UNL d   1      -9.172  33.927  29.766  0.00  0.00     0.198 C 
BRANCH  43  44
ATOM     44  O   UNL d   1      -8.702  33.506  30.542  0.00  0.00    -0.398 OA
ATOM     45  H   UNL d   1      -8.400  33.860  30.951  0.00  0.00     0.209 HD
ENDBRANCH  43  44
ENDBRANCH   6  43
BRANCH   3  46
ATOM     46  O   UNL d   1      -8.418  36.658  27.773  0.00  0.00    -0.390 OA
ATOM     47  H   UNL d   1      -8.167  36.884  27.253  0.00  0.00     0.210 HD
ENDBRANCH   3  46
BRANCH   4  48
ATOM     48  O   UNL d   1      -9.477  35.837  29.258  0.00  0.00    -0.390 OA
ATOM     49  H   UNL d   1     -10.078  35.695  29.212  0.00  0.00     0.210 HD
ENDBRANCH   4  48
TORSDOF 14
ENDMDL
MODEL 4
REMARK VINA RESULT:    -9.569      2.080      6.674
REMARK INTER + INTRA:          -4.933
REMARK INTER:                 -14.919
REMARK INTRA:                   9.986
REMARK UNBOUND:                10.230
REMARK  14 active torsions:
REMARK  status: ('A' for Active; 'I' for Inactive)
REMARK    1  A    between atoms: C_15  and  O_1 
REMARK    2  A    between atoms: C_18  and  O_1 
REMARK    3  A    between atoms: C_16  and  O_4 
REMARK    4  A    between atoms: C_20  and  O_5 
REMARK    5  A    between atoms: O_5  and  C_27 
REMARK    6  A    between atoms: C_17  and  O_6 
REMARK    7  A    between atoms: C_19  and  O_7 
REMARK    8  A    between atoms: C_22  and  O_8 
REMARK    9  A    between atoms: C_23  and  O_9 
REMARK   10  A    between atoms: O_10  and  C_25 
REMARK   11  A    between atoms: O_12  and  C_31 
REMARK   12  A    between atoms: O_14  and  C_41 
REMARK   13  A    between atoms: C_21  and  C_25 
REMARK   14  A    between atoms: C_34  and  C_36 
ROOT
ATOM      1  O   UNL d   1      -6.933  31.761  28.580  0.00  0.00    -0.348 OA
ATOM      2  C   UNL d   1      -5.418  32.126  29.337  0.00  0.00     0.211 A 
ATOM      3  C   UNL d   1      -5.014  31.311  28.921  0.00  0.00     0.183 A 
ATOM      4  C   UNL d   1      -5.569  30.721  28.335  0.00  0.00     0.180 A 
ATOM      5  C   UNL d   1      -6.377  32.351  29.166  0.00  0.00     0.298 A 
ATOM      6  C   UNL d   1      -6.529  30.947  28.164  0.00  0.00     0.179 A 
ENDROOT
BRANCH   5   7
ATOM      7  O   UNL d   1      -6.781  33.166  29.582  0.00  0.00    -0.318 OA
BRANCH   7   8
ATOM      8  C   UNL d   1      -7.644  33.531  29.232  0.00  0.00     0.077 A 
ATOM      9  C   UNL d   1      -7.692  33.935  28.273  0.00  0.00     0.075 A 
ATOM     10  C   UNL d   1      -8.595  34.312  27.918  0.00  0.00     0.095 A 
ATOM     11  O   UNL d   1      -8.633  34.699  26.996  0.00  0.00    -0.309 OA
ATOM     12  C   UNL d   1      -9.418  34.292  28.485  0.00  0.00     0.081 A 
ATOM     13  C   UNL d   1      -9.494  35.065  26.642  0.00  0.00     0.090 A 
ATOM     14  C   UNL d   1     -10.316  35.044  27.210  0.00  0.00     0.094 A 
ATOM     15  C   UNL d   1     -10.279  34.658  28.131  0.00  0.00     0.190 A 
ATOM     16  O   UNL d   1     -11.102  34.637  28.699  0.00  0.00    -0.287 OA
ATOM     17  C   UNL d   1      -9.394  33.892  29.447  0.00  0.00     0.085 A 
ATOM     18  C   UNL d   1      -8.502  33.510  29.823  0.00  0.00     0.074 A 
BRANCH  13  19
ATOM     19  C   UNL d   1      -9.532  35.451  25.720  0.00  0.00    -0.002 A 
ATOM     20  C   UNL d   1      -9.567  34.846  24.925  0.00  0.00     0.017 A 
ATOM     21  C   UNL d   1      -9.605  35.233  24.004  0.00  0.00     0.037 A 
ATOM     22  C   UNL d   1      -9.608  36.225  23.878  0.00  0.00     0.065 A 
ATOM     23  C   UNL d   1      -9.573  36.830  24.673  0.00  0.00     0.037 A 
ATOM     24  C   UNL d   1      -9.535  36.443  25.595  0.00  0.00     0.017 A 
BRANCH  22  25
ATOM     25  O   UNL d   1      -9.646  36.611  22.956  0.00  0.00    -0.361 OA
ATOM     26  H   UNL d   1      -9.354  36.327  22.489  0.00  0.00     0.217 HD
ENDBRANCH  22  25
ENDBRANCH  13  19
BRANCH  17  27
ATOM     27  O   UNL d   1     -10.224  33.877  30.006  0.00  0.00    -0.360 OA
ATOM     28  H   UNL d   1     -10.307  33.427  30.424  0.00  0.00     0.217 HD
ENDBRANCH  17  27
ENDBRANCH   7   8
ENDBRANCH   5   7
BRANCH   2  29
ATOM     29  O   UNL d   1      -4.863  32.715  29.924  0.00  0.00    -0.346 OA
BRANCH  29  30
ATOM     30  C   UNL d   1      -4.268  33.408  29.516  0.00  0.00     0.292 A 
ATOM     31  O   UNL d   1      -4.420  33.707  28.574  0.00  0.00    -0.351 OA
ATOM     32  C   UNL d   1      -3.825  34.399  28.167  0.00  0.00     0.152 A 
ATOM     33  C   UNL d   1      -3.077  34.793  28.701  0.00  0.00     0.178 A 
ATOM     34  C   UNL d   1      -3.977  34.698  27.225  0.00  0.00     0.042 C 
ATOM     35  C   UNL d   1      -2.924  34.494  29.643  0.00  0.00     0.183 A 
ATOM     36  C   UNL d   1      -3.520  33.802  30.051  0.00  0.00     0.204 A 
BRANCH  33  37
ATOM     37  O   UNL d   1      -2.482  35.486  28.294  0.00  0.00    -0.390 OA
ATOM     38  H   UNL d   1      -1.982  35.686  28.603  0.00  0.00     0.210 HD
ENDBRANCH  33  37
BRANCH  35  39
ATOM     39  O   UNL d   1      -2.177  34.888  30.178  0.00  0.00    -0.390 OA
ATOM     40  H   UNL d   1      -1.950  35.445  30.030  0.00  0.00     0.210 HD
ENDBRANCH  35  39
BRANCH  36  41
ATOM     41  O   UNL d   1      -3.367  33.503  30.993  0.00  0.00    -0.388 OA
ATOM     42  H   UNL d   1      -3.092  32.958  31.105  0.00  0.00     0.210 HD
ENDBRANCH  36  41
ENDBRANCH  29  30
ENDBRANCH   2  29
BRANCH   6  43
ATOM     43  C   UNL d   1      -7.084  30.357  27.578  0.00  0.00     0.198 C 
BRANCH  43  44
ATOM     44  O   UNL d   1      -7.667  30.760  26.872  0.00  0.00    -0.398 OA
ATOM     45  H   UNL d   1      -8.179  30.464  26.686  0.00  0.00     0.209 HD
ENDBRANCH  43  44
ENDBRANCH   6  43
BRANCH   3  46
ATOM     46  O   UNL d   1      -4.055  31.086  29.092  0.00  0.00    -0.390 OA
ATOM     47  H   UNL d   1      -3.877  30.895  29.654  0.00  0.00     0.210 HD
ENDBRANCH   3  46
BRANCH   4  48
ATOM     48  O   UNL d   1      -5.166  29.907  27.919  0.00  0.00    -0.390 OA
ATOM     49  H   UNL d   1      -4.910  29.470  28.277  0.00  0.00     0.210 HD
ENDBRANCH   4  48
TORSDOF 14
ENDMDL
MODEL 5
REMARK VINA RESULT:    -9.477      1.521      3.456
REMARK INTER + INTRA:          -4.788
REMARK INTER:                 -15.605
REMARK INTRA:                  10.816
REMARK UNBOUND:                10.230
REMARK  14 active torsions:
REMARK  status: ('A' for Active; 'I' for Inactive)
REMARK    1  A    between atoms: C_15  and  O_1 
REMARK    2  A    between atoms: C_18  and  O_1 
REMARK    3  A    between atoms: C_16  and  O_4 
REMARK    4  A    between atoms: C_20  and  O_5 
REMARK    5  A    between atoms: O_5  and  C_27 
REMARK    6  A    between atoms: C_17  and  O_6 
REMARK    7  A    between atoms: C_19  and  O_7 
REMARK    8  A    between atoms: C_22  and  O_8 
REMARK    9  A    between atoms: C_23  and  O_9 
REMARK   10  A    between atoms: O_10  and  C_25 
REMARK   11  A    between atoms: O_12  and  C_31 
REMARK   12  A    between atoms: O_14  and  C_41 
REMARK   13  A    between atoms: C_21  and  C_25 
REMARK   14  A    between atoms: C_34  and  C_36 
ROOT
ATOM      1  O   UNL d   1      -7.928  34.070  25.842  0.00  0.00    -0.348 OA
ATOM      2  C   UNL d   1      -7.104  35.522  26.302  0.00  0.00     0.211 A 
ATOM      3  C   UNL d   1      -7.018  35.778  25.340  0.00  0.00     0.183 A 
ATOM      4  C   UNL d   1      -7.388  35.180  24.628  0.00  0.00     0.180 A 
ATOM      5  C   UNL d   1      -7.559  34.668  26.554  0.00  0.00     0.298 A 
ATOM      6  C   UNL d   1      -7.843  34.326  24.880  0.00  0.00     0.179 A 
ENDROOT
BRANCH   5   7
ATOM      7  O   UNL d   1      -7.644  34.411  27.517  0.00  0.00    -0.318 OA
BRANCH   7   8
ATOM      8  C   UNL d   1      -7.749  33.450  27.771  0.00  0.00     0.077 A 
ATOM      9  C   UNL d   1      -6.947  32.791  27.673  0.00  0.00     0.075 A 
ATOM     10  C   UNL d   1      -7.067  31.792  27.941  0.00  0.00     0.095 A 
ATOM     11  O   UNL d   1      -6.293  31.166  27.845  0.00  0.00    -0.309 OA
ATOM     12  C   UNL d   1      -7.942  31.455  28.290  0.00  0.00     0.081 A 
ATOM     13  C   UNL d   1      -6.394  30.204  28.098  0.00  0.00     0.090 A 
ATOM     14  C   UNL d   1      -7.268  29.868  28.447  0.00  0.00     0.094 A 
ATOM     15  C   UNL d   1      -8.042  30.493  28.543  0.00  0.00     0.190 A 
ATOM     16  O   UNL d   1      -8.917  30.157  28.893  0.00  0.00    -0.287 OA
ATOM     17  C   UNL d   1      -8.757  32.096  28.396  0.00  0.00     0.085 A 
ATOM     18  C   UNL d   1      -8.660  33.099  28.135  0.00  0.00     0.074 A 
BRANCH  13  19
ATOM     19  C   UNL d   1      -5.620  29.577  28.002  0.00  0.00    -0.002 A 
ATOM     20  C   UNL d   1      -5.677  28.805  27.369  0.00  0.00     0.017 A 
ATOM     21  C   UNL d   1      -4.903  28.180  27.274  0.00  0.00     0.037 A 
ATOM     22  C   UNL d   1      -4.072  28.326  27.810  0.00  0.00     0.065 A 
ATOM     23  C   UNL d   1      -4.015  29.098  28.443  0.00  0.00     0.037 A 
ATOM     24  C   UNL d   1      -4.789  29.724  28.539  0.00  0.00     0.017 A 
BRANCH  22  25
ATOM     25  O   UNL d   1      -3.298  27.700  27.714  0.00  0.00    -0.361 OA
ATOM     26  H   UNL d   1      -2.913  27.607  28.191  0.00  0.00     0.217 HD
ENDBRANCH  22  25
ENDBRANCH  13  19
BRANCH  17  27
ATOM     27  O   UNL d   1      -9.627  31.748  28.746  0.00  0.00    -0.360 OA
ATOM     28  H   UNL d   1      -9.633  31.263  29.134  0.00  0.00     0.217 HD
ENDBRANCH  17  27
ENDBRANCH   7   8
ENDBRANCH   5   7
BRANCH   2  29
ATOM     29  O   UNL d   1      -6.734  36.120  27.014  0.00  0.00    -0.346 OA
BRANCH  29  30
ATOM     30  C   UNL d   1      -5.753  36.122  27.204  0.00  0.00     0.292 A 
ATOM     31  O   UNL d   1      -5.255  35.258  27.274  0.00  0.00    -0.351 OA
ATOM     32  C   UNL d   1      -4.273  35.261  27.465  0.00  0.00     0.152 A 
ATOM     33  C   UNL d   1      -3.789  36.128  27.586  0.00  0.00     0.178 A 
ATOM     34  C   UNL d   1      -3.775  34.396  27.535  0.00  0.00     0.042 C 
ATOM     35  C   UNL d   1      -4.288  36.992  27.516  0.00  0.00     0.183 A 
ATOM     36  C   UNL d   1      -5.269  36.989  27.325  0.00  0.00     0.204 A 
BRANCH  33  37
ATOM     37  O   UNL d   1      -2.808  36.130  27.777  0.00  0.00    -0.390 OA
ATOM     38  H   UNL d   1      -2.401  36.141  27.309  0.00  0.00     0.210 HD
ENDBRANCH  33  37
BRANCH  35  39
ATOM     39  O   UNL d   1      -3.804  37.859  27.637  0.00  0.00    -0.390 OA
ATOM     40  H   UNL d   1      -3.774  38.265  27.170  0.00  0.00     0.210 HD
ENDBRANCH  35  39
BRANCH  36  41
ATOM     41  O   UNL d   1      -5.767  37.854  27.256  0.00  0.00    -0.388 OA
ATOM     42  H   UNL d   1      -6.297  37.932  27.568  0.00  0.00     0.210 HD
ENDBRANCH  36  41
ENDBRANCH  29  30
ENDBRANCH   2  29
BRANCH   6  43
ATOM     43  C   UNL d   1      -8.212  33.728  24.168  0.00  0.00     0.198 C 
BRANCH  43  44
ATOM     44  O   UNL d   1      -8.133  32.735  24.259  0.00  0.00    -0.398 OA
ATOM     45  H   UNL d   1      -8.018  32.387  23.759  0.00  0.00     0.209 HD
ENDBRANCH  43  44
ENDBRANCH   6  43
BRANCH   3  46
ATOM     46  O   UNL d   1      -6.563  36.632  25.088  0.00  0.00    -0.390 OA
ATOM     47  H   UNL d   1      -6.895  37.151  25.014  0.00  0.00     0.210 HD
ENDBRANCH   3  46
BRANCH   4  48
ATOM     48  O   UNL d   1      -7.302  35.437  23.665  0.00  0.00    -0.390 OA
ATOM     49  H   UNL d   1      -6.793  35.730  23.467  0.00  0.00     0.210 HD
ENDBRANCH   4  48
TORSDOF 14
ENDMDL
