MODEL 1
REMARK VINA RESULT:    -7.929      0.000      0.000
REMARK INTER + INTRA:          -5.149
REMARK INTER:                 -10.403
REMARK INTRA:                   5.254
REMARK UNBOUND:                 5.098
REMARK  6 active torsions:
REMARK  status: ('A' for Active; 'I' for Inactive)
REMARK    1  A    between atoms: O_2  and  C_15 
REMARK    2  A    between atoms: O_3  and  C_17 
REMARK    3  A    between atoms: O_4  and  C_11 
REMARK    4  A    between atoms: O_6  and  C_22 
REMARK    5  A    between atoms: O_7  and  C_20 
REMARK    6  A    between atoms: C_10  and  C_13 
ROOT
ATOM      1  O   UNL d   1      -6.851  34.525  26.587  0.00  0.00    -0.309 OA
ATOM      2  O   UNL d   1      -7.665  31.571  26.771  0.00  0.00    -0.287 OA
ATOM      3  C   UNL d   1      -6.550  32.881  27.189  0.00  0.00     0.084 A 
ATOM      4  C   UNL d   1      -6.282  33.842  27.131  0.00  0.00     0.096 A 
ATOM      5  C   UNL d   1      -7.711  34.201  26.097  0.00  0.00     0.090 A 
ATOM      6  C   UNL d   1      -5.994  32.237  27.715  0.00  0.00     0.119 A 
ATOM      7  C   UNL d   1      -7.406  32.535  26.707  0.00  0.00     0.190 A 
ATOM      8  C   UNL d   1      -5.457  34.160  27.599  0.00  0.00     0.078 A 
ATOM      9  C   UNL d   1      -5.170  32.555  28.183  0.00  0.00     0.136 A 
ATOM     10  C   UNL d   1      -7.991  33.199  26.157  0.00  0.00     0.094 A 
ATOM     11  C   UNL d   1      -4.901  33.517  28.125  0.00  0.00     0.107 A 
ENDROOT
BRANCH   5  12
ATOM     12  C   UNL d   1      -8.265  34.847  25.572  0.00  0.00     0.001 A 
ATOM     13  C   UNL d   1      -8.448  35.760  25.937  0.00  0.00     0.053 A 
ATOM     14  C   UNL d   1      -9.002  36.407  25.413  0.00  0.00     0.099 A 
ATOM     15  C   UNL d   1      -9.372  36.140  24.523  0.00  0.00     0.101 A 
ATOM     16  C   UNL d   1      -9.189  35.227  24.158  0.00  0.00     0.040 A 
ATOM     17  C   UNL d   1      -8.635  34.581  24.683  0.00  0.00     0.017 A 
BRANCH  14  18
ATOM     18  O   UNL d   1      -9.185  37.320  25.777  0.00  0.00    -0.358 OA
ATOM     19  H   UNL d   1      -9.392  37.767  25.402  0.00  0.00     0.217 HD
ENDBRANCH  14  18
BRANCH  15  20
ATOM     20  O   UNL d   1      -9.926  36.786  23.998  0.00  0.00    -0.353 OA
ATOM     21  C   UNL d   1     -10.154  36.590  23.044  0.00  0.00     0.210 C 
ENDBRANCH  15  20
ENDBRANCH   5  12
BRANCH   6  22
ATOM     22  O   UNL d   1      -6.262  31.275  27.773  0.00  0.00    -0.357 OA
ATOM     23  H   UNL d   1      -6.857  31.114  27.699  0.00  0.00     0.218 HD
ENDBRANCH   6  22
BRANCH  11  24
ATOM     24  O   UNL d   1      -4.077  33.835  28.593  0.00  0.00    -0.353 OA
ATOM     25  C   UNL d   1      -3.636  34.685  28.307  0.00  0.00     0.210 C 
ENDBRANCH  11  24
BRANCH   9  26
ATOM     26  O   UNL d   1      -4.614  31.912  28.709  0.00  0.00    -0.351 OA
ATOM     27  C   UNL d   1      -4.886  31.658  29.637  0.00  0.00     0.210 C 
ENDBRANCH   9  26
TORSDOF 6
ENDMDL
MODEL 2
REMARK VINA RESULT:    -7.924      1.313      2.074
REMARK INTER + INTRA:          -5.142
REMARK INTER:                 -10.198
REMARK INTRA:                   5.056
REMARK UNBOUND:                 5.098
REMARK  6 active torsions:
REMARK  status: ('A' for Active; 'I' for Inactive)
REMARK    1  A    between atoms: O_2  and  C_15 
REMARK    2  A    between atoms: O_3  and  C_17 
REMARK    3  A    between atoms: O_4  and  C_11 
REMARK    4  A    between atoms: O_6  and  C_22 
REMARK    5  A    between atoms: O_7  and  C_20 
REMARK    6  A    between atoms: C_10  and  C_13 
ROOT
ATOM      1  O   UNL d   1      -5.877  34.477  26.845  0.00  0.00    -0.309 OA
ATOM      2  O   UNL d   1      -6.547  32.417  29.020  0.00  0.00    -0.287 OA
ATOM      3  C   UNL d   1      -5.404  33.552  28.286  0.00  0.00     0.084 A 
ATOM      4  C   UNL d   1      -5.183  34.224  27.579  0.00  0.00     0.096 A 
ATOM      5  C   UNL d   1      -6.816  34.024  26.848  0.00  0.00     0.090 A 
ATOM      6  C   UNL d   1      -4.727  33.319  28.984  0.00  0.00     0.119 A 
ATOM      7  C   UNL d   1      -6.336  33.087  28.308  0.00  0.00     0.190 A 
ATOM      8  C   UNL d   1      -4.284  34.662  27.570  0.00  0.00     0.078 A 
ATOM      9  C   UNL d   1      -3.828  33.757  28.975  0.00  0.00     0.136 A 
ATOM     10  C   UNL d   1      -7.047  33.324  27.585  0.00  0.00     0.094 A 
ATOM     11  C   UNL d   1      -3.607  34.429  28.268  0.00  0.00     0.107 A 
ENDROOT
BRANCH   5  12
ATOM     12  C   UNL d   1      -7.490  34.260  26.149  0.00  0.00     0.001 A 
ATOM     13  C   UNL d   1      -7.575  33.697  25.327  0.00  0.00     0.053 A 
ATOM     14  C   UNL d   1      -8.250  33.932  24.627  0.00  0.00     0.099 A 
ATOM     15  C   UNL d   1      -8.840  34.730  24.750  0.00  0.00     0.101 A 
ATOM     16  C   UNL d   1      -8.755  35.293  25.572  0.00  0.00     0.040 A 
ATOM     17  C   UNL d   1      -8.080  35.057  26.271  0.00  0.00     0.017 A 
BRANCH  14  18
ATOM     18  O   UNL d   1      -8.335  33.369  23.804  0.00  0.00    -0.358 OA
ATOM     19  H   UNL d   1      -7.827  33.171  23.510  0.00  0.00     0.217 HD
ENDBRANCH  14  18
BRANCH  15  20
ATOM     20  O   UNL d   1      -9.514  34.965  24.050  0.00  0.00    -0.353 OA
ATOM     21  C   UNL d   1      -9.741  35.923  23.876  0.00  0.00     0.210 C 
ENDBRANCH  15  20
ENDBRANCH   5  12
BRANCH   6  22
ATOM     22  O   UNL d   1      -4.949  32.647  29.691  0.00  0.00    -0.357 OA
ATOM     23  H   UNL d   1      -5.079  32.835  30.267  0.00  0.00     0.218 HD
ENDBRANCH   6  22
BRANCH  11  24
ATOM     24  O   UNL d   1      -2.708  34.867  28.259  0.00  0.00    -0.353 OA
ATOM     25  C   UNL d   1      -2.402  35.363  27.446  0.00  0.00     0.210 C 
ENDBRANCH  11  24
BRANCH   9  26
ATOM     26  O   UNL d   1      -3.151  33.524  29.673  0.00  0.00    -0.351 OA
ATOM     27  C   UNL d   1      -3.210  33.934  30.583  0.00  0.00     0.210 C 
ENDBRANCH   9  26
TORSDOF 6
ENDMDL
MODEL 3
REMARK VINA RESULT:    -7.895      1.696      2.956
REMARK INTER + INTRA:          -5.105
REMARK INTER:                 -10.132
REMARK INTRA:                   5.027
REMARK UNBOUND:                 5.098
REMARK  6 active torsions:
REMARK  status: ('A' for Active; 'I' for Inactive)
REMARK    1  A    between atoms: O_2  and  C_15 
REMARK    2  A    between atoms: O_3  and  C_17 
REMARK    3  A    between atoms: O_4  and  C_11 
REMARK    4  A    between atoms: O_6  and  C_22 
REMARK    5  A    between atoms: O_7  and  C_20 
REMARK    6  A    between atoms: C_10  and  C_13 
ROOT
ATOM      1  O   UNL d   1      -5.729  34.399  27.553  0.00  0.00    -0.309 OA
ATOM      2  O   UNL d   1      -3.260  36.222  27.616  0.00  0.00    -0.287 OA
ATOM      3  C   UNL d   1      -4.057  34.708  28.069  0.00  0.00     0.084 A 
ATOM      4  C   UNL d   1      -4.860  34.112  28.051  0.00  0.00     0.096 A 
ATOM      5  C   UNL d   1      -5.762  35.321  27.068  0.00  0.00     0.090 A 
ATOM      6  C   UNL d   1      -3.230  34.419  28.551  0.00  0.00     0.119 A 
ATOM      7  C   UNL d   1      -4.069  35.633  27.591  0.00  0.00     0.190 A 
ATOM      8  C   UNL d   1      -4.835  33.226  28.514  0.00  0.00     0.078 A 
ATOM      9  C   UNL d   1      -3.206  33.533  29.015  0.00  0.00     0.136 A 
ATOM     10  C   UNL d   1      -4.926  35.942  27.087  0.00  0.00     0.094 A 
ATOM     11  C   UNL d   1      -4.008  32.937  28.996  0.00  0.00     0.107 A 
ENDROOT
BRANCH   5  12
ATOM     12  C   UNL d   1      -6.590  35.607  26.587  0.00  0.00     0.001 A 
ATOM     13  C   UNL d   1      -7.321  36.075  27.085  0.00  0.00     0.053 A 
ATOM     14  C   UNL d   1      -8.150  36.361  26.605  0.00  0.00     0.099 A 
ATOM     15  C   UNL d   1      -8.248  36.180  25.626  0.00  0.00     0.101 A 
ATOM     16  C   UNL d   1      -7.518  35.712  25.128  0.00  0.00     0.040 A 
ATOM     17  C   UNL d   1      -6.689  35.425  25.609  0.00  0.00     0.017 A 
BRANCH  14  18
ATOM     18  O   UNL d   1      -8.881  36.829  27.102  0.00  0.00    -0.358 OA
ATOM     19  H   UNL d   1      -9.396  36.523  27.257  0.00  0.00     0.217 HD
ENDBRANCH  14  18
BRANCH  15  20
ATOM     20  O   UNL d   1      -9.077  36.466  25.145  0.00  0.00    -0.353 OA
ATOM     21  C   UNL d   1      -9.332  36.028  24.284  0.00  0.00     0.210 C 
ENDBRANCH  15  20
ENDBRANCH   5  12
BRANCH   6  22
ATOM     22  O   UNL d   1      -2.428  35.016  28.570  0.00  0.00    -0.357 OA
ATOM     23  H   UNL d   1      -2.170  35.204  28.039  0.00  0.00     0.218 HD
ENDBRANCH   6  22
BRANCH  11  24
ATOM     24  O   UNL d   1      -3.983  32.051  29.460  0.00  0.00    -0.353 OA
ATOM     25  C   UNL d   1      -4.699  31.375  29.284  0.00  0.00     0.210 C 
ENDBRANCH  11  24
BRANCH   9  26
ATOM     26  O   UNL d   1      -2.379  33.244  29.497  0.00  0.00    -0.351 OA
ATOM     27  C   UNL d   1      -2.171  33.616  30.402  0.00  0.00     0.210 C 
ENDBRANCH   9  26
TORSDOF 6
ENDMDL
MODEL 4
REMARK VINA RESULT:    -7.678      1.900      6.279
REMARK INTER + INTRA:          -4.825
REMARK INTER:                  -9.921
REMARK INTRA:                   5.096
REMARK UNBOUND:                 5.098
REMARK  6 active torsions:
REMARK  status: ('A' for Active; 'I' for Inactive)
REMARK    1  A    between atoms: O_2  and  C_15 
REMARK    2  A    between atoms: O_3  and  C_17 
REMARK    3  A    between atoms: O_4  and  C_11 
REMARK    4  A    between atoms: O_6  and  C_22 
REMARK    5  A    between atoms: O_7  and  C_20 
REMARK    6  A    between atoms: C_10  and  C_13 
ROOT
ATOM      1  O   UNL d   1      -5.089  34.445  27.348  0.00  0.00    -0.309 OA
ATOM      2  O   UNL d   1      -5.865  37.407  27.140  0.00  0.00    -0.287 OA
ATOM      3  C   UNL d   1      -6.272  35.699  26.921  0.00  0.00     0.084 A 
ATOM      4  C   UNL d   1      -6.023  34.733  26.987  0.00  0.00     0.096 A 
ATOM      5  C   UNL d   1      -4.406  35.174  27.644  0.00  0.00     0.090 A 
ATOM      6  C   UNL d   1      -7.172  35.961  26.572  0.00  0.00     0.119 A 
ATOM      7  C   UNL d   1      -5.605  36.444  27.211  0.00  0.00     0.190 A 
ATOM      8  C   UNL d   1      -6.673  34.028  26.704  0.00  0.00     0.078 A 
ATOM      9  C   UNL d   1      -7.823  35.256  26.290  0.00  0.00     0.136 A 
ATOM     10  C   UNL d   1      -4.666  36.181  27.575  0.00  0.00     0.094 A 
ATOM     11  C   UNL d   1      -7.574  34.290  26.356  0.00  0.00     0.107 A 
ENDROOT
BRANCH   5  12
ATOM     12  C   UNL d   1      -3.507  34.909  27.992  0.00  0.00     0.001 A 
ATOM     13  C   UNL d   1      -2.682  35.150  27.480  0.00  0.00     0.053 A 
ATOM     14  C   UNL d   1      -1.782  34.886  27.828  0.00  0.00     0.099 A 
ATOM     15  C   UNL d   1      -1.708  34.380  28.688  0.00  0.00     0.101 A 
ATOM     16  C   UNL d   1      -2.533  34.139  29.199  0.00  0.00     0.040 A 
ATOM     17  C   UNL d   1      -3.432  34.404  28.851  0.00  0.00     0.017 A 
BRANCH  14  18
ATOM     18  O   UNL d   1      -0.957  35.127  27.317  0.00  0.00    -0.358 OA
ATOM     19  H   UNL d   1      -0.891  34.942  26.730  0.00  0.00     0.217 HD
ENDBRANCH  14  18
BRANCH  15  20
ATOM     20  O   UNL d   1      -0.809  34.115  29.036  0.00  0.00    -0.353 OA
ATOM     21  C   UNL d   1      -0.736  33.575  29.873  0.00  0.00     0.210 C 
ENDBRANCH  15  20
ENDBRANCH   5  12
BRANCH   6  22
ATOM     22  O   UNL d   1      -7.422  36.927  26.506  0.00  0.00    -0.357 OA
ATOM     23  H   UNL d   1      -7.923  37.138  26.803  0.00  0.00     0.218 HD
ENDBRANCH   6  22
BRANCH  11  24
ATOM     24  O   UNL d   1      -8.224  33.585  26.073  0.00  0.00    -0.353 OA
ATOM     25  C   UNL d   1      -7.941  32.626  26.043  0.00  0.00     0.210 C 
ENDBRANCH  11  24
BRANCH   9  26
ATOM     26  O   UNL d   1      -8.723  35.517  25.941  0.00  0.00    -0.351 OA
ATOM     27  C   UNL d   1      -8.814  35.883  25.015  0.00  0.00     0.210 C 
ENDBRANCH   9  26
TORSDOF 6
ENDMDL
MODEL 5
REMARK VINA RESULT:    -7.494      3.472      5.389
REMARK INTER + INTRA:          -4.587
REMARK INTER:                  -9.707
REMARK INTRA:                   5.119
REMARK UNBOUND:                 5.098
REMARK  6 active torsions:
REMARK  status: ('A' for Active; 'I' for Inactive)
REMARK    1  A    between atoms: O_2  and  C_15 
REMARK    2  A    between atoms: O_3  and  C_17 
REMARK    3  A    between atoms: O_4  and  C_11 
REMARK    4  A    between atoms: O_6  and  C_22 
REMARK    5  A    between atoms: O_7  and  C_20 
REMARK    6  A    between atoms: C_10  and  C_13 
ROOT
ATOM      1  O   UNL d   1     -10.013  34.929  27.020  0.00  0.00    -0.309 OA
ATOM      2  O   UNL d   1      -7.558  33.088  27.003  0.00  0.00    -0.287 OA
ATOM      3  C   UNL d   1      -8.631  34.216  26.162  0.00  0.00     0.084 A 
ATOM      4  C   UNL d   1      -9.430  34.817  26.164  0.00  0.00     0.096 A 
ATOM      5  C   UNL d   1      -9.760  34.408  27.885  0.00  0.00     0.090 A 
ATOM      6  C   UNL d   1      -8.080  34.118  25.333  0.00  0.00     0.119 A 
ATOM      7  C   UNL d   1      -8.360  33.686  27.016  0.00  0.00     0.190 A 
ATOM      8  C   UNL d   1      -9.679  35.320  25.336  0.00  0.00     0.078 A 
ATOM      9  C   UNL d   1      -8.329  34.622  24.505  0.00  0.00     0.136 A 
ATOM     10  C   UNL d   1      -8.927  33.782  27.884  0.00  0.00     0.094 A 
ATOM     11  C   UNL d   1      -9.128  35.223  24.507  0.00  0.00     0.107 A 
ENDROOT
BRANCH   5  12
ATOM     12  C   UNL d   1     -10.313  34.507  28.713  0.00  0.00     0.001 A 
ATOM     13  C   UNL d   1     -11.218  34.084  28.763  0.00  0.00     0.053 A 
ATOM     14  C   UNL d   1     -11.771  34.184  29.590  0.00  0.00     0.099 A 
ATOM     15  C   UNL d   1     -11.419  34.706  30.367  0.00  0.00     0.101 A 
ATOM     16  C   UNL d   1     -10.514  35.129  30.316  0.00  0.00     0.040 A 
ATOM     17  C   UNL d   1      -9.961  35.030  29.489  0.00  0.00     0.017 A 
BRANCH  14  18
ATOM     18  O   UNL d   1     -12.676  33.761  29.642  0.00  0.00    -0.358 OA
ATOM     19  H   UNL d   1     -12.753  33.170  29.473  0.00  0.00     0.217 HD
ENDBRANCH  14  18
BRANCH  15  20
ATOM     20  O   UNL d   1     -11.971  34.806  31.194  0.00  0.00    -0.353 OA
ATOM     21  C   UNL d   1     -11.575  35.220  32.014  0.00  0.00     0.210 C 
ENDBRANCH  15  20
ENDBRANCH   5  12
BRANCH   6  22
ATOM     22  O   UNL d   1      -7.281  33.518  25.331  0.00  0.00    -0.357 OA
ATOM     23  H   UNL d   1      -7.103  33.237  25.855  0.00  0.00     0.218 HD
ENDBRANCH   6  22
BRANCH  11  24
ATOM     24  O   UNL d   1      -9.377  35.726  23.680  0.00  0.00    -0.353 OA
ATOM     25  C   UNL d   1     -10.062  36.453  23.724  0.00  0.00     0.210 C 
ENDBRANCH  11  24
BRANCH   9  26
ATOM     26  O   UNL d   1      -7.779  34.524  23.676  0.00  0.00    -0.351 OA
ATOM     27  C   UNL d   1      -6.978  35.107  23.536  0.00  0.00     0.210 C 
ENDBRANCH   9  26
TORSDOF 6
ENDMDL
