MODEL 1
REMARK VINA RESULT:    -7.084      0.000      0.000
REMARK INTER + INTRA:          -0.992
REMARK INTER:                 -14.090
REMARK INTRA:                  13.098
REMARK UNBOUND:                12.718
REMARK  19 active torsions:
REMARK  status: ('A' for Active; 'I' for Inactive)
REMARK    1  A    between atoms: C_13  and  O_1 
REMARK    2  A    between atoms: O_1  and  C_17 
REMARK    3  A    between atoms: C_14  and  O_2 
REMARK    4  A    between atoms: O_2  and  C_18 
REMARK    5  A    between atoms: O_3  and  C_15 
REMARK    6  A    between atoms: O_4  and  C_16 
REMARK    7  A    between atoms: O_9  and  C_29 
REMARK    8  A    between atoms: O_10  and  C_30 
REMARK    9  A    between atoms: O_11  and  C_33 
REMARK   10  A    between atoms: O_12  and  C_34 
REMARK   11  A    between atoms: C_13  and  C_14 
REMARK   12  A    between atoms: C_13  and  C_15 
REMARK   13  A    between atoms: C_14  and  C_16 
REMARK   14  A    between atoms: C_17  and  C_21 
REMARK   15  A    between atoms: C_18  and  C_22 
REMARK   16  A    between atoms: C_19  and  C_23 
REMARK   17  A    between atoms: C_20  and  C_24 
REMARK   18  A    between atoms: C_21  and  C_23 
REMARK   19  A    between atoms: C_22  and  C_24 
ROOT
ATOM      1  C   UNL d   1      -8.813  33.223  29.561  0.00  0.00     0.269 C 
ENDROOT
BRANCH   1   2
ATOM      2  O   UNL d   1      -7.818  33.314  29.579  0.00  0.00    -0.299 OA
BRANCH   2   3
ATOM      3  C   UNL d   1      -7.268  32.951  28.827  0.00  0.00     0.283 C 
ATOM      4  O   UNL d   1      -7.656  32.265  28.210  0.00  0.00    -0.260 OA
BRANCH   3   5
ATOM      5  C   UNL d   1      -6.331  33.272  28.691  0.00  0.00     0.083 C 
BRANCH   5   6
ATOM      6  C   UNL d   1      -6.026  33.553  27.781  0.00  0.00     0.017 C 
BRANCH   6   7
ATOM      7  C   UNL d   1      -5.274  34.205  27.685  0.00  0.00    -0.033 A 
ATOM      8  C   UNL d   1      -4.343  33.934  27.931  0.00  0.00     0.050 A 
ATOM      9  C   UNL d   1      -3.591  34.586  27.835  0.00  0.00     0.099 A 
ATOM     10  C   UNL d   1      -3.769  35.509  27.494  0.00  0.00     0.098 A 
ATOM     11  C   UNL d   1      -4.700  35.780  27.248  0.00  0.00     0.040 A 
ATOM     12  C   UNL d   1      -5.452  35.128  27.344  0.00  0.00     0.014 A 
BRANCH   9  13
ATOM     13  O   UNL d   1      -2.660  34.315  28.080  0.00  0.00    -0.358 OA
ATOM     14  H   UNL d   1      -2.232  34.748  28.199  0.00  0.00     0.217 HD
ENDBRANCH   9  13
BRANCH  10  15
ATOM     15  O   UNL d   1      -3.017  36.161  27.398  0.00  0.00    -0.358 OA
ATOM     16  H   UNL d   1      -2.986  36.655  27.771  0.00  0.00     0.217 HD
ENDBRANCH  10  15
ENDBRANCH   6   7
ENDBRANCH   5   6
ENDBRANCH   3   5
ENDBRANCH   2   3
ENDBRANCH   1   2
BRANCH   1  17
ATOM     17  C   UNL d   1      -9.382  34.000  29.291  0.00  0.00     0.269 C 
BRANCH  17  18
ATOM     18  O   UNL d   1      -9.859  33.989  28.412  0.00  0.00    -0.299 OA
BRANCH  18  19
ATOM     19  C   UNL d   1      -9.968  34.836  27.893  0.00  0.00     0.283 C 
ATOM     20  O   UNL d   1     -10.741  35.442  28.080  0.00  0.00    -0.260 OA
BRANCH  19  21
ATOM     21  C   UNL d   1      -9.303  35.078  27.185  0.00  0.00     0.083 C 
BRANCH  21  22
ATOM     22  C   UNL d   1      -9.465  34.812  26.235  0.00  0.00     0.017 C 
BRANCH  22  23
ATOM     23  C   UNL d   1      -8.745  34.936  25.552  0.00  0.00    -0.033 A 
ATOM     24  C   UNL d   1      -8.376  34.144  25.066  0.00  0.00     0.050 A 
ATOM     25  C   UNL d   1      -7.656  34.268  24.382  0.00  0.00     0.099 A 
ATOM     26  C   UNL d   1      -7.306  35.184  24.185  0.00  0.00     0.098 A 
ATOM     27  C   UNL d   1      -7.675  35.975  24.672  0.00  0.00     0.040 A 
ATOM     28  C   UNL d   1      -8.395  35.852  25.355  0.00  0.00     0.014 A 
BRANCH  25  29
ATOM     29  O   UNL d   1      -7.287  33.476  23.896  0.00  0.00    -0.358 OA
ATOM     30  H   UNL d   1      -7.265  32.923  24.176  0.00  0.00     0.217 HD
ENDBRANCH  25  29
BRANCH  26  31
ATOM     31  O   UNL d   1      -6.587  35.307  23.502  0.00  0.00    -0.358 OA
ATOM     32  H   UNL d   1      -6.040  35.550  23.668  0.00  0.00     0.217 HD
ENDBRANCH  26  31
ENDBRANCH  22  23
ENDBRANCH  21  22
ENDBRANCH  19  21
ENDBRANCH  18  19
ENDBRANCH  17  18
BRANCH  17  33
ATOM     33  C   UNL d   1      -9.474  34.787  29.901  0.00  0.00     0.173 C 
ATOM     34  O   UNL d   1     -10.276  34.869  30.493  0.00  0.00    -0.648 OA
BRANCH  33  35
ATOM     35  O   UNL d   1      -8.766  35.492  29.918  0.00  0.00    -0.774 OA
ATOM     36  H   UNL d   1      -8.331  35.484  30.359  0.00  0.00     0.167 HD
ENDBRANCH  33  35
ENDBRANCH  17  33
ENDBRANCH   1  17
BRANCH   1  37
ATOM     37  C   UNL d   1      -9.240  32.354  29.813  0.00  0.00     0.173 C 
ATOM     38  O   UNL d   1      -8.994  31.907  30.673  0.00  0.00    -0.648 OA
BRANCH  37  39
ATOM     39  O   UNL d   1      -9.913  31.933  29.204  0.00  0.00    -0.774 OA
ATOM     40  H   UNL d   1     -10.089  32.225  28.687  0.00  0.00     0.167 HD
ENDBRANCH  37  39
ENDBRANCH   1  37
TORSDOF 19
ENDMDL
MODEL 2
REMARK VINA RESULT:    -6.937      2.210      4.811
REMARK INTER + INTRA:          -0.708
REMARK INTER:                 -13.286
REMARK INTRA:                  12.578
REMARK UNBOUND:                12.718
REMARK  19 active torsions:
REMARK  status: ('A' for Active; 'I' for Inactive)
REMARK    1  A    between atoms: C_13  and  O_1 
REMARK    2  A    between atoms: O_1  and  C_17 
REMARK    3  A    between atoms: C_14  and  O_2 
REMARK    4  A    between atoms: O_2  and  C_18 
REMARK    5  A    between atoms: O_3  and  C_15 
REMARK    6  A    between atoms: O_4  and  C_16 
REMARK    7  A    between atoms: O_9  and  C_29 
REMARK    8  A    between atoms: O_10  and  C_30 
REMARK    9  A    between atoms: O_11  and  C_33 
REMARK   10  A    between atoms: O_12  and  C_34 
REMARK   11  A    between atoms: C_13  and  C_14 
REMARK   12  A    between atoms: C_13  and  C_15 
REMARK   13  A    between atoms: C_14  and  C_16 
REMARK   14  A    between atoms: C_17  and  C_21 
REMARK   15  A    between atoms: C_18  and  C_22 
REMARK   16  A    between atoms: C_19  and  C_23 
REMARK   17  A    between atoms: C_20  and  C_24 
REMARK   18  A    between atoms: C_21  and  C_23 
REMARK   19  A    between atoms: C_22  and  C_24 
ROOT
ATOM      1  C   UNL d   1      -7.865  34.554  25.572  0.00  0.00     0.269 C 
ENDROOT
BRANCH   1   2
ATOM      2  O   UNL d   1      -8.045  33.887  26.294  0.00  0.00    -0.299 OA
BRANCH   2   3
ATOM      3  C   UNL d   1      -7.588  32.998  26.280  0.00  0.00     0.283 C 
ATOM      4  O   UNL d   1      -7.919  32.275  25.673  0.00  0.00    -0.260 OA
BRANCH   3   5
ATOM      5  C   UNL d   1      -6.800  32.831  26.872  0.00  0.00     0.083 C 
BRANCH   5   6
ATOM      6  C   UNL d   1      -6.929  32.413  27.771  0.00  0.00     0.017 C 
BRANCH   6   7
ATOM      7  C   UNL d   1      -6.156  32.328  28.399  0.00  0.00    -0.033 A 
ATOM      8  C   UNL d   1      -6.134  32.865  29.242  0.00  0.00     0.050 A 
ATOM      9  C   UNL d   1      -5.361  32.779  29.870  0.00  0.00     0.099 A 
ATOM     10  C   UNL d   1      -4.608  32.157  29.654  0.00  0.00     0.098 A 
ATOM     11  C   UNL d   1      -4.630  31.620  28.811  0.00  0.00     0.040 A 
ATOM     12  C   UNL d   1      -5.403  31.706  28.183  0.00  0.00     0.014 A 
BRANCH   9  13
ATOM     13  O   UNL d   1      -5.339  33.316  30.713  0.00  0.00    -0.358 OA
ATOM     14  H   UNL d   1      -4.997  33.832  30.744  0.00  0.00     0.217 HD
ENDBRANCH   9  13
BRANCH  10  15
ATOM     15  O   UNL d   1      -3.835  32.071  30.282  0.00  0.00    -0.358 OA
ATOM     16  H   UNL d   1      -3.335  31.745  30.115  0.00  0.00     0.217 HD
ENDBRANCH  10  15
ENDBRANCH   6   7
ENDBRANCH   5   6
ENDBRANCH   3   5
ENDBRANCH   2   3
ENDBRANCH   1   2
BRANCH   1  17
ATOM     17  C   UNL d   1      -7.665  35.505  25.808  0.00  0.00     0.269 C 
BRANCH  17  18
ATOM     18  O   UNL d   1      -6.735  35.860  25.711  0.00  0.00    -0.299 OA
BRANCH  18  19
ATOM     19  C   UNL d   1      -6.267  36.258  26.500  0.00  0.00     0.283 C 
ATOM     20  O   UNL d   1      -6.544  37.154  26.846  0.00  0.00    -0.260 OA
BRANCH  19  21
ATOM     21  C   UNL d   1      -5.521  35.760  26.942  0.00  0.00     0.083 C 
BRANCH  21  22
ATOM     22  C   UNL d   1      -4.669  36.232  27.167  0.00  0.00     0.017 C 
BRANCH  22  23
ATOM     23  C   UNL d   1      -3.951  35.754  27.674  0.00  0.00    -0.033 A 
ATOM     24  C   UNL d   1      -3.852  35.900  28.658  0.00  0.00     0.050 A 
ATOM     25  C   UNL d   1      -3.135  35.422  29.165  0.00  0.00     0.099 A 
ATOM     26  C   UNL d   1      -2.516  34.798  28.688  0.00  0.00     0.098 A 
ATOM     27  C   UNL d   1      -2.615  34.652  27.703  0.00  0.00     0.040 A 
ATOM     28  C   UNL d   1      -3.333  35.129  27.197  0.00  0.00     0.014 A 
BRANCH  25  29
ATOM     29  O   UNL d   1      -3.036  35.568  30.149  0.00  0.00    -0.358 OA
ATOM     30  H   UNL d   1      -2.596  35.266  30.465  0.00  0.00     0.217 HD
ENDBRANCH  25  29
BRANCH  26  31
ATOM     31  O   UNL d   1      -1.799  34.320  29.194  0.00  0.00    -0.358 OA
ATOM     32  H   UNL d   1      -1.246  34.588  29.275  0.00  0.00     0.217 HD
ENDBRANCH  26  31
ENDBRANCH  22  23
ENDBRANCH  21  22
ENDBRANCH  19  21
ENDBRANCH  18  19
ENDBRANCH  17  18
BRANCH  17  33
ATOM     33  C   UNL d   1      -8.395  36.102  26.142  0.00  0.00     0.173 C 
ATOM     34  O   UNL d   1      -8.754  35.983  27.067  0.00  0.00    -0.648 OA
BRANCH  33  35
ATOM     35  O   UNL d   1      -8.766  36.817  25.549  0.00  0.00    -0.774 OA
ATOM     36  H   UNL d   1      -8.447  37.341  25.459  0.00  0.00     0.167 HD
ENDBRANCH  33  35
ENDBRANCH  17  33
ENDBRANCH   1  17
BRANCH   1  37
ATOM     37  C   UNL d   1      -7.884  34.271  24.613  0.00  0.00     0.173 C 
ATOM     38  O   UNL d   1      -8.758  34.185  24.135  0.00  0.00    -0.648 OA
BRANCH  37  39
ATOM     39  O   UNL d   1      -7.029  34.073  24.133  0.00  0.00    -0.774 OA
ATOM     40  H   UNL d   1      -6.764  34.509  23.781  0.00  0.00     0.167 HD
ENDBRANCH  37  39
ENDBRANCH   1  37
TORSDOF 19
ENDMDL
MODEL 3
REMARK VINA RESULT:    -6.917      2.241      4.730
REMARK INTER + INTRA:          -0.670
REMARK INTER:                 -13.387
REMARK INTRA:                  12.717
REMARK UNBOUND:                12.718
REMARK  19 active torsions:
REMARK  status: ('A' for Active; 'I' for Inactive)
REMARK    1  A    between atoms: C_13  and  O_1 
REMARK    2  A    between atoms: O_1  and  C_17 
REMARK    3  A    between atoms: C_14  and  O_2 
REMARK    4  A    between atoms: O_2  and  C_18 
REMARK    5  A    between atoms: O_3  and  C_15 
REMARK    6  A    between atoms: O_4  and  C_16 
REMARK    7  A    between atoms: O_9  and  C_29 
REMARK    8  A    between atoms: O_10  and  C_30 
REMARK    9  A    between atoms: O_11  and  C_33 
REMARK   10  A    between atoms: O_12  and  C_34 
REMARK   11  A    between atoms: C_13  and  C_14 
REMARK   12  A    between atoms: C_13  and  C_15 
REMARK   13  A    between atoms: C_14  and  C_16 
REMARK   14  A    between atoms: C_17  and  C_21 
REMARK   15  A    between atoms: C_18  and  C_22 
REMARK   16  A    between atoms: C_19  and  C_23 
REMARK   17  A    between atoms: C_20  and  C_24 
REMARK   18  A    between atoms: C_21  and  C_23 
REMARK   19  A    between atoms: C_22  and  C_24 
ROOT
ATOM      1  C   UNL d   1      -7.622  35.456  25.806  0.00  0.00     0.269 C 
ENDROOT
BRANCH   1   2
ATOM      2  O   UNL d   1      -6.669  35.703  25.634  0.00  0.00    -0.299 OA
BRANCH   2   3
ATOM      3  C   UNL d   1      -6.153  36.214  26.321  0.00  0.00     0.283 C 
ATOM      4  O   UNL d   1      -6.323  37.191  26.450  0.00  0.00    -0.260 OA
BRANCH   3   5
ATOM      5  C   UNL d   1      -5.466  35.748  26.880  0.00  0.00     0.083 C 
BRANCH   5   6
ATOM      6  C   UNL d   1      -4.668  36.250  27.212  0.00  0.00     0.017 C 
BRANCH   6   7
ATOM      7  C   UNL d   1      -3.936  35.765  27.690  0.00  0.00    -0.033 A 
ATOM      8  C   UNL d   1      -3.833  35.865  28.680  0.00  0.00     0.050 A 
ATOM      9  C   UNL d   1      -3.101  35.380  29.158  0.00  0.00     0.099 A 
ATOM     10  C   UNL d   1      -2.471  34.795  28.647  0.00  0.00     0.098 A 
ATOM     11  C   UNL d   1      -2.574  34.695  27.657  0.00  0.00     0.040 A 
ATOM     12  C   UNL d   1      -3.306  35.180  27.179  0.00  0.00     0.014 A 
BRANCH   9  13
ATOM     13  O   UNL d   1      -2.999  35.480  30.148  0.00  0.00    -0.358 OA
ATOM     14  H   UNL d   1      -3.327  35.910  30.452  0.00  0.00     0.217 HD
ENDBRANCH   9  13
BRANCH  10  15
ATOM     15  O   UNL d   1      -1.739  34.310  29.125  0.00  0.00    -0.358 OA
ATOM     16  H   UNL d   1      -1.365  34.618  29.512  0.00  0.00     0.217 HD
ENDBRANCH  10  15
ENDBRANCH   6   7
ENDBRANCH   5   6
ENDBRANCH   3   5
ENDBRANCH   2   3
ENDBRANCH   1   2
BRANCH   1  17
ATOM     17  C   UNL d   1      -7.951  34.539  25.578  0.00  0.00     0.269 C 
BRANCH  17  18
ATOM     18  O   UNL d   1      -8.219  33.908  26.306  0.00  0.00    -0.299 OA
BRANCH  18  19
ATOM     19  C   UNL d   1      -7.653  33.109  26.509  0.00  0.00     0.283 C 
ATOM     20  O   UNL d   1      -7.435  32.454  25.785  0.00  0.00    -0.260 OA
BRANCH  19  21
ATOM     21  C   UNL d   1      -7.305  32.964  27.435  0.00  0.00     0.083 C 
BRANCH  21  22
ATOM     22  C   UNL d   1      -6.509  32.378  27.584  0.00  0.00     0.017 C 
BRANCH  22  23
ATOM     23  C   UNL d   1      -5.995  32.441  28.440  0.00  0.00    -0.033 A 
ATOM     24  C   UNL d   1      -5.086  32.030  28.508  0.00  0.00     0.050 A 
ATOM     25  C   UNL d   1      -4.572  32.092  29.364  0.00  0.00     0.099 A 
ATOM     26  C   UNL d   1      -4.967  32.566  30.151  0.00  0.00     0.098 A 
ATOM     27  C   UNL d   1      -5.876  32.977  30.082  0.00  0.00     0.040 A 
ATOM     28  C   UNL d   1      -6.390  32.914  29.227  0.00  0.00     0.014 A 
BRANCH  25  29
ATOM     29  O   UNL d   1      -3.663  31.681  29.432  0.00  0.00    -0.358 OA
ATOM     30  H   UNL d   1      -3.432  31.358  28.956  0.00  0.00     0.217 HD
ENDBRANCH  25  29
BRANCH  26  31
ATOM     31  O   UNL d   1      -4.454  32.629  31.006  0.00  0.00    -0.358 OA
ATOM     32  H   UNL d   1      -4.252  32.113  31.286  0.00  0.00     0.217 HD
ENDBRANCH  26  31
ENDBRANCH  22  23
ENDBRANCH  21  22
ENDBRANCH  19  21
ENDBRANCH  18  19
ENDBRANCH  17  18
BRANCH  17  33
ATOM     33  C   UNL d   1      -8.011  34.254  24.622  0.00  0.00     0.173 C 
ATOM     34  O   UNL d   1      -8.900  34.224  24.164  0.00  0.00    -0.648 OA
BRANCH  33  35
ATOM     35  O   UNL d   1      -7.183  33.997  24.123  0.00  0.00    -0.774 OA
ATOM     36  H   UNL d   1      -7.061  33.399  24.012  0.00  0.00     0.167 HD
ENDBRANCH  33  35
ENDBRANCH  17  33
ENDBRANCH   1  17
BRANCH   1  37
ATOM     37  C   UNL d   1      -8.248  36.125  26.207  0.00  0.00     0.173 C 
ATOM     38  O   UNL d   1      -8.439  36.107  27.188  0.00  0.00    -0.648 OA
BRANCH  37  39
ATOM     39  O   UNL d   1      -8.682  36.814  25.626  0.00  0.00    -0.774 OA
ATOM     40  H   UNL d   1      -8.337  37.158  25.242  0.00  0.00     0.167 HD
ENDBRANCH  37  39
ENDBRANCH   1  37
TORSDOF 19
ENDMDL
MODEL 4
REMARK VINA RESULT:    -6.832      0.847      4.165
REMARK INTER + INTRA:          -0.505
REMARK INTER:                 -14.152
REMARK INTRA:                  13.647
REMARK UNBOUND:                12.718
REMARK  19 active torsions:
REMARK  status: ('A' for Active; 'I' for Inactive)
REMARK    1  A    between atoms: C_13  and  O_1 
REMARK    2  A    between atoms: O_1  and  C_17 
REMARK    3  A    between atoms: C_14  and  O_2 
REMARK    4  A    between atoms: O_2  and  C_18 
REMARK    5  A    between atoms: O_3  and  C_15 
REMARK    6  A    between atoms: O_4  and  C_16 
REMARK    7  A    between atoms: O_9  and  C_29 
REMARK    8  A    between atoms: O_10  and  C_30 
REMARK    9  A    between atoms: O_11  and  C_33 
REMARK   10  A    between atoms: O_12  and  C_34 
REMARK   11  A    between atoms: C_13  and  C_14 
REMARK   12  A    between atoms: C_13  and  C_15 
REMARK   13  A    between atoms: C_14  and  C_16 
REMARK   14  A    between atoms: C_17  and  C_21 
REMARK   15  A    between atoms: C_18  and  C_22 
REMARK   16  A    between atoms: C_19  and  C_23 
REMARK   17  A    between atoms: C_20  and  C_24 
REMARK   18  A    between atoms: C_21  and  C_23 
REMARK   19  A    between atoms: C_22  and  C_24 
ROOT
ATOM      1  C   UNL d   1      -9.486  34.281  29.227  0.00  0.00     0.269 C 
ENDROOT
BRANCH   1   2
ATOM      2  O   UNL d   1      -9.982  34.369  28.363  0.00  0.00    -0.299 OA
BRANCH   2   3
ATOM      3  C   UNL d   1     -10.210  35.275  28.007  0.00  0.00     0.283 C 
ATOM      4  O   UNL d   1     -11.083  35.701  28.245  0.00  0.00    -0.260 OA
BRANCH   3   5
ATOM      5  C   UNL d   1      -9.564  35.756  27.414  0.00  0.00     0.083 C 
BRANCH   5   6
ATOM      6  C   UNL d   1      -9.576  35.593  26.427  0.00  0.00     0.017 C 
BRANCH   6   7
ATOM      7  C   UNL d   1      -8.727  35.647  25.902  0.00  0.00    -0.033 A 
ATOM      8  C   UNL d   1      -8.038  36.334  26.133  0.00  0.00     0.050 A 
ATOM      9  C   UNL d   1      -7.189  36.388  25.607  0.00  0.00     0.099 A 
ATOM     10  C   UNL d   1      -7.028  35.754  24.851  0.00  0.00     0.098 A 
ATOM     11  C   UNL d   1      -7.717  35.066  24.620  0.00  0.00     0.040 A 
ATOM     12  C   UNL d   1      -8.566  35.013  25.145  0.00  0.00     0.014 A 
BRANCH   9  13
ATOM     13  O   UNL d   1      -6.500  37.075  25.838  0.00  0.00    -0.358 OA
ATOM     14  H   UNL d   1      -6.654  37.561  26.192  0.00  0.00     0.217 HD
ENDBRANCH   9  13
BRANCH  10  15
ATOM     15  O   UNL d   1      -6.179  35.807  24.325  0.00  0.00    -0.358 OA
ATOM     16  H   UNL d   1      -5.639  35.667  24.595  0.00  0.00     0.217 HD
ENDBRANCH  10  15
ENDBRANCH   6   7
ENDBRANCH   5   6
ENDBRANCH   3   5
ENDBRANCH   2   3
ENDBRANCH   1   2
BRANCH   1  17
ATOM     17  C   UNL d   1      -8.959  33.453  29.419  0.00  0.00     0.269 C 
BRANCH  17  18
ATOM     18  O   UNL d   1      -7.967  33.451  29.292  0.00  0.00    -0.299 OA
BRANCH  18  19
ATOM     19  C   UNL d   1      -7.574  33.146  28.424  0.00  0.00     0.283 C 
ATOM     20  O   UNL d   1      -8.049  32.458  27.875  0.00  0.00    -0.260 OA
BRANCH  19  21
ATOM     21  C   UNL d   1      -6.707  33.528  28.105  0.00  0.00     0.083 C 
BRANCH  21  22
ATOM     22  C   UNL d   1      -5.845  33.206  28.496  0.00  0.00     0.017 C 
BRANCH  22  23
ATOM     23  C   UNL d   1      -5.000  33.714  28.330  0.00  0.00    -0.033 A 
ATOM     24  C   UNL d   1      -4.951  34.373  27.579  0.00  0.00     0.050 A 
ATOM     25  C   UNL d   1      -4.106  34.881  27.413  0.00  0.00     0.099 A 
ATOM     26  C   UNL d   1      -3.310  34.731  27.999  0.00  0.00     0.098 A 
ATOM     27  C   UNL d   1      -3.358  34.073  28.750  0.00  0.00     0.040 A 
ATOM     28  C   UNL d   1      -4.203  33.564  28.916  0.00  0.00     0.014 A 
BRANCH  25  29
ATOM     29  O   UNL d   1      -4.058  35.539  26.662  0.00  0.00    -0.358 OA
ATOM     30  H   UNL d   1      -3.519  35.813  26.524  0.00  0.00     0.217 HD
ENDBRANCH  25  29
BRANCH  26  31
ATOM     31  O   UNL d   1      -2.465  35.239  27.833  0.00  0.00    -0.358 OA
ATOM     32  H   UNL d   1      -2.221  35.590  28.282  0.00  0.00     0.217 HD
ENDBRANCH  26  31
ENDBRANCH  22  23
ENDBRANCH  21  22
ENDBRANCH  19  21
ENDBRANCH  18  19
ENDBRANCH  17  18
BRANCH  17  33
ATOM     33  C   UNL d   1      -9.423  32.627  29.738  0.00  0.00     0.173 C 
ATOM     34  O   UNL d   1      -9.028  32.086  30.480  0.00  0.00    -0.648 OA
BRANCH  33  35
ATOM     35  O   UNL d   1     -10.283  32.342  29.314  0.00  0.00    -0.774 OA
ATOM     36  H   UNL d   1     -10.823  32.552  29.536  0.00  0.00     0.167 HD
ENDBRANCH  33  35
ENDBRANCH  17  33
ENDBRANCH   1  17
BRANCH   1  37
ATOM     37  C   UNL d   1      -9.516  35.021  29.899  0.00  0.00     0.173 C 
ATOM     38  O   UNL d   1     -10.246  35.046  30.583  0.00  0.00    -0.648 OA
BRANCH  37  39
ATOM     39  O   UNL d   1      -8.818  35.736  29.887  0.00  0.00    -0.774 OA
ATOM     40  H   UNL d   1      -8.969  36.320  30.031  0.00  0.00     0.167 HD
ENDBRANCH  37  39
ENDBRANCH   1  37
TORSDOF 19
ENDMDL
MODEL 5
REMARK VINA RESULT:    -6.795      2.072      5.307
REMARK INTER + INTRA:          -0.433
REMARK INTER:                 -13.314
REMARK INTRA:                  12.881
REMARK UNBOUND:                12.718
REMARK  19 active torsions:
REMARK  status: ('A' for Active; 'I' for Inactive)
REMARK    1  A    between atoms: C_13  and  O_1 
REMARK    2  A    between atoms: O_1  and  C_17 
REMARK    3  A    between atoms: C_14  and  O_2 
REMARK    4  A    between atoms: O_2  and  C_18 
REMARK    5  A    between atoms: O_3  and  C_15 
REMARK    6  A    between atoms: O_4  and  C_16 
REMARK    7  A    between atoms: O_9  and  C_29 
REMARK    8  A    between atoms: O_10  and  C_30 
REMARK    9  A    between atoms: O_11  and  C_33 
REMARK   10  A    between atoms: O_12  and  C_34 
REMARK   11  A    between atoms: C_13  and  C_14 
REMARK   12  A    between atoms: C_13  and  C_15 
REMARK   13  A    between atoms: C_14  and  C_16 
REMARK   14  A    between atoms: C_17  and  C_21 
REMARK   15  A    between atoms: C_18  and  C_22 
REMARK   16  A    between atoms: C_19  and  C_23 
REMARK   17  A    between atoms: C_20  and  C_24 
REMARK   18  A    between atoms: C_21  and  C_23 
REMARK   19  A    between atoms: C_22  and  C_24 
ROOT
ATOM      1  C   UNL d   1      -9.046  35.775  25.612  0.00  0.00     0.269 C 
ENDROOT
BRANCH   1   2
ATOM      2  O   UNL d   1      -9.315  36.190  26.481  0.00  0.00    -0.299 OA
BRANCH   2   3
ATOM      3  C   UNL d   1      -9.914  35.694  27.109  0.00  0.00     0.283 C 
ATOM      4  O   UNL d   1     -10.866  35.518  26.858  0.00  0.00    -0.260 OA
BRANCH   3   5
ATOM      5  C   UNL d   1      -9.561  35.372  27.988  0.00  0.00     0.083 C 
BRANCH   5   6
ATOM      6  C   UNL d   1     -10.104  34.745  28.546  0.00  0.00     0.017 C 
BRANCH   6   7
ATOM      7  C   UNL d   1      -9.653  34.025  29.073  0.00  0.00    -0.033 A 
ATOM      8  C   UNL d   1      -8.743  34.182  29.457  0.00  0.00     0.050 A 
ATOM      9  C   UNL d   1      -8.292  33.462  29.984  0.00  0.00     0.099 A 
ATOM     10  C   UNL d   1      -8.750  32.585  30.126  0.00  0.00     0.098 A 
ATOM     11  C   UNL d   1      -9.660  32.428  29.742  0.00  0.00     0.040 A 
ATOM     12  C   UNL d   1     -10.111  33.148  29.215  0.00  0.00     0.014 A 
BRANCH   9  13
ATOM     13  O   UNL d   1      -7.382  33.620  30.368  0.00  0.00    -0.358 OA
ATOM     14  H   UNL d   1      -6.881  33.389  30.084  0.00  0.00     0.217 HD
ENDBRANCH   9  13
BRANCH  10  15
ATOM     15  O   UNL d   1      -8.298  31.865  30.653  0.00  0.00    -0.358 OA
ATOM     16  H   UNL d   1      -7.697  31.916  30.796  0.00  0.00     0.217 HD
ENDBRANCH  10  15
ENDBRANCH   6   7
ENDBRANCH   5   6
ENDBRANCH   3   5
ENDBRANCH   2   3
ENDBRANCH   1   2
BRANCH   1  17
ATOM     17  C   UNL d   1      -8.254  35.166  25.572  0.00  0.00     0.269 C 
BRANCH  17  18
ATOM     18  O   UNL d   1      -8.365  34.188  25.753  0.00  0.00    -0.299 OA
BRANCH  18  19
ATOM     19  C   UNL d   1      -7.803  33.523  25.262  0.00  0.00     0.283 C 
ATOM     20  O   UNL d   1      -7.794  33.516  24.262  0.00  0.00    -0.260 OA
BRANCH  19  21
ATOM     21  C   UNL d   1      -7.250  32.863  25.772  0.00  0.00     0.083 C 
BRANCH  21  22
ATOM     22  C   UNL d   1      -7.693  32.204  26.380  0.00  0.00     0.017 C 
BRANCH  22  23
ATOM     23  C   UNL d   1      -7.140  31.643  26.996  0.00  0.00    -0.033 A 
ATOM     24  C   UNL d   1      -6.309  32.019  27.405  0.00  0.00     0.050 A 
ATOM     25  C   UNL d   1      -5.756  31.458  28.021  0.00  0.00     0.099 A 
ATOM     26  C   UNL d   1      -6.035  30.520  28.228  0.00  0.00     0.098 A 
ATOM     27  C   UNL d   1      -6.866  30.144  27.819  0.00  0.00     0.040 A 
ATOM     28  C   UNL d   1      -7.419  30.705  27.203  0.00  0.00     0.014 A 
BRANCH  25  29
ATOM     29  O   UNL d   1      -4.925  31.835  28.430  0.00  0.00    -0.358 OA
ATOM     30  H   UNL d   1      -4.960  32.324  28.809  0.00  0.00     0.217 HD
ENDBRANCH  25  29
BRANCH  26  31
ATOM     31  O   UNL d   1      -5.482  29.959  28.844  0.00  0.00    -0.358 OA
ATOM     32  H   UNL d   1      -5.323  29.383  28.680  0.00  0.00     0.217 HD
ENDBRANCH  26  31
ENDBRANCH  22  23
ENDBRANCH  21  22
ENDBRANCH  19  21
ENDBRANCH  18  19
ENDBRANCH  17  18
BRANCH  17  33
ATOM     33  C   UNL d   1      -7.351  35.534  25.352  0.00  0.00     0.173 C 
ATOM     34  O   UNL d   1      -6.655  35.613  26.066  0.00  0.00    -0.648 OA
BRANCH  33  35
ATOM     35  O   UNL d   1      -7.143  35.824  24.418  0.00  0.00    -0.774 OA
ATOM     36  H   UNL d   1      -6.587  36.062  24.283  0.00  0.00     0.167 HD
ENDBRANCH  33  35
ENDBRANCH  17  33
ENDBRANCH   1  17
BRANCH   1  37
ATOM     37  C   UNL d   1      -9.571  35.968  24.782  0.00  0.00     0.173 C 
ATOM     38  O   UNL d   1      -9.623  36.902  24.430  0.00  0.00    -0.648 OA
BRANCH  37  39
ATOM     39  O   UNL d   1     -10.042  35.226  24.305  0.00  0.00    -0.774 OA
ATOM     40  H   UNL d   1     -10.250  35.313  23.727  0.00  0.00     0.167 HD
ENDBRANCH  37  39
ENDBRANCH   1  37
TORSDOF 19
ENDMDL
