MODEL 1
REMARK VINA RESULT:    -6.585      0.000      0.000
REMARK INTER + INTRA:          -7.446
REMARK INTER:                  -8.487
REMARK INTRA:                   1.041
REMARK UNBOUND:                 0.872
REMARK  6 active torsions:
REMARK  status: ('A' for Active; 'I' for Inactive)
REMARK    1  A    between atoms: O_1  and  C_12 
REMARK    2  A    between atoms: O_1  and  C_13 
REMARK    3  A    between atoms: O_2  and  C_9 
REMARK    4  A    between atoms: O_3  and  C_10 
REMARK    5  A    between atoms: O_4  and  C_11 
REMARK    6  A    between atoms: C_6  and  C_12 
ROOT
ATOM      1  C   UNL d   1      15.175 -26.503  36.467  0.00  0.00     0.044 A 
ATOM      2  C   UNL d   1      14.820 -27.365  36.829  0.00  0.00     0.057 A 
ATOM      3  C   UNL d   1      15.841 -25.976  36.995  0.00  0.00     0.057 A 
ATOM      4  C   UNL d   1      16.152 -26.310  37.885  0.00  0.00     0.102 A 
ATOM      5  C   UNL d   1      15.131 -27.700  37.719  0.00  0.00     0.102 A 
ATOM      6  C   UNL d   1      15.797 -27.172  38.246  0.00  0.00     0.132 A 
ENDROOT
BRANCH   1   7
ATOM      7  C   UNL d   1      14.864 -26.168  35.578  0.00  0.00     0.293 C 
ATOM      8  O   UNL d   1      14.729 -26.809  34.822  0.00  0.00    -0.259 OA
BRANCH   7   9
ATOM      9  O   UNL d   1      14.689 -25.193  35.444  0.00  0.00    -0.318 OA
BRANCH   9  10
ATOM     10  C   UNL d   1      14.258 -24.874  34.600  0.00  0.00     0.174 C 
ATOM     11  C   UNL d   1      14.194 -23.894  34.411  0.00  0.00     0.034 C 
ENDBRANCH   9  10
ENDBRANCH   7   9
ENDBRANCH   1   7
BRANCH   5  12
ATOM     12  O   UNL d   1      14.776 -28.562  38.080  0.00  0.00    -0.358 OA
ATOM     13  H   UNL d   1      15.147 -29.057  38.120  0.00  0.00     0.217 HD
ENDBRANCH   5  12
BRANCH   4  14
ATOM     14  O   UNL d   1      16.817 -25.783  38.413  0.00  0.00    -0.358 OA
ATOM     15  H   UNL d   1      16.818 -25.164  38.381  0.00  0.00     0.217 HD
ENDBRANCH   4  14
BRANCH   6  16
ATOM     16  O   UNL d   1      16.107 -27.507  39.136  0.00  0.00    -0.356 OA
ATOM     17  H   UNL d   1      16.714 -27.537  39.262  0.00  0.00     0.218 HD
ENDBRANCH   6  16
TORSDOF 6
ENDMDL
MODEL 2
REMARK VINA RESULT:    -6.581     29.796     31.072
REMARK INTER + INTRA:          -7.441
REMARK INTER:                  -8.323
REMARK INTRA:                   0.881
REMARK UNBOUND:                 0.872
REMARK  6 active torsions:
REMARK  status: ('A' for Active; 'I' for Inactive)
REMARK    1  A    between atoms: O_1  and  C_12 
REMARK    2  A    between atoms: O_1  and  C_13 
REMARK    3  A    between atoms: O_2  and  C_9 
REMARK    4  A    between atoms: O_3  and  C_10 
REMARK    5  A    between atoms: O_4  and  C_11 
REMARK    6  A    between atoms: C_6  and  C_12 
ROOT
ATOM      1  C   UNL d   1       0.018  -2.355  48.362  0.00  0.00     0.044 A 
ATOM      2  C   UNL d   1      -0.226  -1.545  47.828  0.00  0.00     0.057 A 
ATOM      3  C   UNL d   1      -0.575  -2.660  49.107  0.00  0.00     0.057 A 
ATOM      4  C   UNL d   1      -1.413  -2.156  49.318  0.00  0.00     0.102 A 
ATOM      5  C   UNL d   1      -1.063  -1.041  48.039  0.00  0.00     0.102 A 
ATOM      6  C   UNL d   1      -1.657  -1.346  48.783  0.00  0.00     0.132 A 
ENDROOT
BRANCH   1   7
ATOM      7  C   UNL d   1       0.856  -2.859  48.151  0.00  0.00     0.293 C 
ATOM      8  O   UNL d   1       1.728  -2.564  48.540  0.00  0.00    -0.259 OA
BRANCH   7   9
ATOM      9  O   UNL d   1       0.821  -3.658  47.552  0.00  0.00    -0.318 OA
BRANCH   9  10
ATOM     10  C   UNL d   1       1.667  -4.115  47.277  0.00  0.00     0.174 C 
ATOM     11  C   UNL d   1       1.657  -4.777  46.528  0.00  0.00     0.034 C 
ENDBRANCH   9  10
ENDBRANCH   7   9
ENDBRANCH   1   7
BRANCH   5  12
ATOM     12  O   UNL d   1      -1.307  -0.232  47.505  0.00  0.00    -0.358 OA
ATOM     13  H   UNL d   1      -1.108  -0.174  46.920  0.00  0.00     0.217 HD
ENDBRANCH   5  12
BRANCH   4  14
ATOM     14  O   UNL d   1      -2.006  -2.461  50.062  0.00  0.00    -0.358 OA
ATOM     15  H   UNL d   1      -1.934  -3.027  50.304  0.00  0.00     0.217 HD
ENDBRANCH   4  14
BRANCH   6  16
ATOM     16  O   UNL d   1      -2.494  -0.842  48.994  0.00  0.00    -0.356 OA
ATOM     17  H   UNL d   1      -2.644  -0.339  48.664  0.00  0.00     0.218 HD
ENDBRANCH   6  16
TORSDOF 6
ENDMDL
MODEL 3
REMARK VINA RESULT:    -6.578     29.806     31.058
REMARK INTER + INTRA:          -7.437
REMARK INTER:                  -8.326
REMARK INTRA:                   0.889
REMARK UNBOUND:                 0.872
REMARK  6 active torsions:
REMARK  status: ('A' for Active; 'I' for Inactive)
REMARK    1  A    between atoms: O_1  and  C_12 
REMARK    2  A    between atoms: O_1  and  C_13 
REMARK    3  A    between atoms: O_2  and  C_9 
REMARK    4  A    between atoms: O_3  and  C_10 
REMARK    5  A    between atoms: O_4  and  C_11 
REMARK    6  A    between atoms: C_6  and  C_12 
ROOT
ATOM      1  C   UNL d   1       0.019  -2.351  48.385  0.00  0.00     0.044 A 
ATOM      2  C   UNL d   1      -0.581  -2.651  49.126  0.00  0.00     0.057 A 
ATOM      3  C   UNL d   1      -0.222  -1.549  47.839  0.00  0.00     0.057 A 
ATOM      4  C   UNL d   1      -1.065  -1.047  48.035  0.00  0.00     0.102 A 
ATOM      5  C   UNL d   1      -1.424  -2.149  49.321  0.00  0.00     0.102 A 
ATOM      6  C   UNL d   1      -1.665  -1.347  48.776  0.00  0.00     0.132 A 
ENDROOT
BRANCH   1   7
ATOM      7  C   UNL d   1       0.862  -2.853  48.190  0.00  0.00     0.293 C 
ATOM      8  O   UNL d   1       1.734  -2.529  48.557  0.00  0.00    -0.259 OA
BRANCH   7   9
ATOM      9  O   UNL d   1       0.832  -3.680  47.627  0.00  0.00    -0.318 OA
BRANCH   9  10
ATOM     10  C   UNL d   1       1.681  -4.082  47.285  0.00  0.00     0.174 C 
ATOM     11  C   UNL d   1       1.653  -4.753  46.544  0.00  0.00     0.034 C 
ENDBRANCH   9  10
ENDBRANCH   7   9
ENDBRANCH   1   7
BRANCH   5  12
ATOM     12  O   UNL d   1      -2.024  -2.450  50.062  0.00  0.00    -0.358 OA
ATOM     13  H   UNL d   1      -2.378  -2.037  50.361  0.00  0.00     0.217 HD
ENDBRANCH   5  12
BRANCH   4  14
ATOM     14  O   UNL d   1      -1.306  -0.244  47.489  0.00  0.00    -0.358 OA
ATOM     15  H   UNL d   1      -0.869   0.056  47.168  0.00  0.00     0.217 HD
ENDBRANCH   4  14
BRANCH   6  16
ATOM     16  O   UNL d   1      -2.508  -0.845  48.971  0.00  0.00    -0.356 OA
ATOM     17  H   UNL d   1      -3.058  -1.104  48.850  0.00  0.00     0.218 HD
ENDBRANCH   6  16
TORSDOF 6
ENDMDL
MODEL 4
REMARK VINA RESULT:    -6.455     49.706     50.874
REMARK INTER + INTRA:          -7.281
REMARK INTER:                  -8.361
REMARK INTRA:                   1.080
REMARK UNBOUND:                 0.872
REMARK  6 active torsions:
REMARK  status: ('A' for Active; 'I' for Inactive)
REMARK    1  A    between atoms: O_1  and  C_12 
REMARK    2  A    between atoms: O_1  and  C_13 
REMARK    3  A    between atoms: O_2  and  C_9 
REMARK    4  A    between atoms: O_3  and  C_10 
REMARK    5  A    between atoms: O_4  and  C_11 
REMARK    6  A    between atoms: C_6  and  C_12 
ROOT
ATOM      1  C   UNL d   1      -6.705  18.207  46.520  0.00  0.00     0.044 A 
ATOM      2  C   UNL d   1      -6.890  17.337  46.063  0.00  0.00     0.057 A 
ATOM      3  C   UNL d   1      -7.435  18.676  47.016  0.00  0.00     0.057 A 
ATOM      4  C   UNL d   1      -8.350  18.275  47.056  0.00  0.00     0.102 A 
ATOM      5  C   UNL d   1      -7.805  16.936  46.102  0.00  0.00     0.102 A 
ATOM      6  C   UNL d   1      -8.535  17.405  46.599  0.00  0.00     0.132 A 
ENDROOT
BRANCH   1   7
ATOM      7  C   UNL d   1      -5.789  18.608  46.480  0.00  0.00     0.293 C 
ATOM      8  O   UNL d   1      -5.218  18.470  45.671  0.00  0.00    -0.259 OA
BRANCH   7   9
ATOM      9  O   UNL d   1      -5.446  19.146  47.249  0.00  0.00    -0.318 OA
BRANCH   9  10
ATOM     10  C   UNL d   1      -4.502  19.478  47.245  0.00  0.00     0.174 C 
ATOM     11  C   UNL d   1      -4.177  20.068  47.984  0.00  0.00     0.034 C 
ENDBRANCH   9  10
ENDBRANCH   7   9
ENDBRANCH   1   7
BRANCH   5  12
ATOM     12  O   UNL d   1      -7.990  16.066  45.645  0.00  0.00    -0.358 OA
ATOM     13  H   UNL d   1      -8.086  16.052  45.033  0.00  0.00     0.217 HD
ENDBRANCH   5  12
BRANCH   4  14
ATOM     14  O   UNL d   1      -9.081  18.744  47.552  0.00  0.00    -0.358 OA
ATOM     15  H   UNL d   1      -9.282  18.519  48.094  0.00  0.00     0.217 HD
ENDBRANCH   4  14
BRANCH   6  16
ATOM     16  O   UNL d   1      -9.450  17.004  46.638  0.00  0.00    -0.356 OA
ATOM     17  H   UNL d   1      -9.606  16.548  46.249  0.00  0.00     0.218 HD
ENDBRANCH   6  16
TORSDOF 6
ENDMDL
MODEL 5
REMARK VINA RESULT:    -6.424     49.691     50.879
REMARK INTER + INTRA:          -7.243
REMARK INTER:                  -8.316
REMARK INTRA:                   1.073
REMARK UNBOUND:                 0.872
REMARK  6 active torsions:
REMARK  status: ('A' for Active; 'I' for Inactive)
REMARK    1  A    between atoms: O_1  and  C_12 
REMARK    2  A    between atoms: O_1  and  C_13 
REMARK    3  A    between atoms: O_2  and  C_9 
REMARK    4  A    between atoms: O_3  and  C_10 
REMARK    5  A    between atoms: O_4  and  C_11 
REMARK    6  A    between atoms: C_6  and  C_12 
ROOT
ATOM      1  C   UNL d   1      -6.711  18.198  46.479  0.00  0.00     0.044 A 
ATOM      2  C   UNL d   1      -7.438  18.695  46.951  0.00  0.00     0.057 A 
ATOM      3  C   UNL d   1      -6.902  17.311  46.059  0.00  0.00     0.057 A 
ATOM      4  C   UNL d   1      -7.821  16.921  46.111  0.00  0.00     0.102 A 
ATOM      5  C   UNL d   1      -8.358  18.305  47.003  0.00  0.00     0.102 A 
ATOM      6  C   UNL d   1      -8.549  17.418  46.584  0.00  0.00     0.132 A 
ENDROOT
BRANCH   1   7
ATOM      7  C   UNL d   1      -5.791  18.588  46.426  0.00  0.00     0.293 C 
ATOM      8  O   UNL d   1      -5.218  18.410  45.627  0.00  0.00    -0.259 OA
BRANCH   7   9
ATOM      9  O   UNL d   1      -5.445  19.156  47.173  0.00  0.00    -0.318 OA
BRANCH   9  10
ATOM     10  C   UNL d   1      -4.496  19.469  47.165  0.00  0.00     0.174 C 
ATOM     11  C   UNL d   1      -4.153  20.044  47.907  0.00  0.00     0.034 C 
ENDBRANCH   9  10
ENDBRANCH   7   9
ENDBRANCH   1   7
BRANCH   5  12
ATOM     12  O   UNL d   1      -9.085  18.802  47.476  0.00  0.00    -0.358 OA
ATOM     13  H   UNL d   1      -8.979  19.372  47.697  0.00  0.00     0.217 HD
ENDBRANCH   5  12
BRANCH   4  14
ATOM     14  O   UNL d   1      -8.013  16.034  45.691  0.00  0.00    -0.358 OA
ATOM     15  H   UNL d   1      -7.757  15.887  45.146  0.00  0.00     0.217 HD
ENDBRANCH   4  14
BRANCH   6  16
ATOM     16  O   UNL d   1      -9.469  17.028  46.636  0.00  0.00    -0.356 OA
ATOM     17  H   UNL d   1      -9.911  17.223  46.248  0.00  0.00     0.218 HD
ENDBRANCH   6  16
TORSDOF 6
ENDMDL
