MODEL 1
REMARK VINA RESULT:    -8.309      0.000      0.000
REMARK INTER + INTRA:          -8.104
REMARK INTER:                  -9.185
REMARK INTRA:                   1.080
REMARK UNBOUND:                 1.176
REMARK  3 active torsions:
REMARK  status: ('A' for Active; 'I' for Inactive)
REMARK    1  A    between atoms: O_2  and  C_10 
REMARK    2  A    between atoms: O_4  and  C_13 
REMARK    3  A    between atoms: C_7  and  C_9 
ROOT
ATOM      1  O   UNL d   1       2.092 -28.282  24.571  0.00  0.00    -0.309 OA
ATOM      2  O   UNL d   1       5.035 -27.808  24.903  0.00  0.00    -0.287 OA
ATOM      3  C   UNL d   1       3.397 -27.382  25.269  0.00  0.00     0.081 A 
ATOM      4  C   UNL d   1       2.416 -27.540  25.158  0.00  0.00     0.095 A 
ATOM      5  C   UNL d   1       2.749 -28.866  24.095  0.00  0.00     0.090 A 
ATOM      6  C   UNL d   1       4.054 -27.966  24.792  0.00  0.00     0.190 A 
ATOM      7  C   UNL d   1       3.749 -26.613  25.877  0.00  0.00     0.085 A 
ATOM      8  C   UNL d   1       3.730 -28.708  24.205  0.00  0.00     0.094 A 
ATOM      9  C   UNL d   1       1.719 -26.941  25.648  0.00  0.00     0.075 A 
ATOM     10  C   UNL d   1       2.048 -26.166  26.261  0.00  0.00     0.071 A 
ATOM     11  C   UNL d   1       3.070 -26.001  26.376  0.00  0.00     0.074 A 
ENDROOT
BRANCH   5  12
ATOM     12  C   UNL d   1       2.425 -29.608  23.508  0.00  0.00    -0.002 A 
ATOM     13  C   UNL d   1       1.908 -30.368  23.902  0.00  0.00     0.014 A 
ATOM     14  C   UNL d   1       1.584 -31.110  23.315  0.00  0.00     0.001 A 
ATOM     15  C   UNL d   1       1.777 -31.092  22.334  0.00  0.00     0.000 A 
ATOM     16  C   UNL d   1       2.295 -30.332  21.940  0.00  0.00     0.001 A 
ATOM     17  C   UNL d   1       2.619 -29.590  22.527  0.00  0.00     0.014 A 
ENDBRANCH   5  12
BRANCH   7  18
ATOM     18  O   UNL d   1       4.732 -26.464  25.980  0.00  0.00    -0.360 OA
ATOM     19  H   UNL d   1       4.943 -26.077  26.416  0.00  0.00     0.217 HD
ENDBRANCH   7  18
BRANCH  10  20
ATOM     20  O   UNL d   1       1.388 -25.584  26.736  0.00  0.00    -0.361 OA
ATOM     21  H   UNL d   1       0.824 -25.494  26.493  0.00  0.00     0.217 HD
ENDBRANCH  10  20
TORSDOF 3
ENDMDL
MODEL 2
REMARK VINA RESULT:    -8.269     48.002     49.163
REMARK INTER + INTRA:          -8.060
REMARK INTER:                  -9.173
REMARK INTRA:                   1.113
REMARK UNBOUND:                 1.176
REMARK  3 active torsions:
REMARK  status: ('A' for Active; 'I' for Inactive)
REMARK    1  A    between atoms: O_2  and  C_10 
REMARK    2  A    between atoms: O_4  and  C_13 
REMARK    3  A    between atoms: C_7  and  C_9 
ROOT
ATOM      1  O   UNL d   1     -12.653  17.288  12.213  0.00  0.00    -0.309 OA
ATOM      2  O   UNL d   1     -10.772  15.134  11.306  0.00  0.00    -0.287 OA
ATOM      3  C   UNL d   1     -11.055  16.624  12.143  0.00  0.00     0.081 A 
ATOM      4  C   UNL d   1     -11.682  17.342  12.445  0.00  0.00     0.095 A 
ATOM      5  C   UNL d   1     -12.997  16.516  11.679  0.00  0.00     0.090 A 
ATOM      6  C   UNL d   1     -11.399  15.852  11.608  0.00  0.00     0.190 A 
ATOM      7  C   UNL d   1     -10.041  16.667  12.376  0.00  0.00     0.085 A 
ATOM      8  C   UNL d   1     -12.370  15.798  11.377  0.00  0.00     0.094 A 
ATOM      9  C   UNL d   1     -11.338  18.152  13.002  0.00  0.00     0.075 A 
ATOM     10  C   UNL d   1     -10.327  18.215  13.247  0.00  0.00     0.071 A 
ATOM     11  C   UNL d   1      -9.675  17.468  12.933  0.00  0.00     0.074 A 
ENDROOT
BRANCH   5  12
ATOM     12  C   UNL d   1     -13.969  16.462  11.447  0.00  0.00    -0.002 A 
ATOM     13  C   UNL d   1     -14.400  17.199  10.927  0.00  0.00     0.014 A 
ATOM     14  C   UNL d   1     -15.371  17.145  10.695  0.00  0.00     0.001 A 
ATOM     15  C   UNL d   1     -15.911  16.354  10.983  0.00  0.00     0.000 A 
ATOM     16  C   UNL d   1     -15.480  15.617  11.504  0.00  0.00     0.001 A 
ATOM     17  C   UNL d   1     -14.508  15.671  11.736  0.00  0.00     0.014 A 
ENDBRANCH   5  12
BRANCH   7  18
ATOM     18  O   UNL d   1      -9.423  15.943  12.069  0.00  0.00    -0.360 OA
ATOM     19  H   UNL d   1      -9.647  15.457  11.755  0.00  0.00     0.217 HD
ENDBRANCH   7  18
BRANCH  10  20
ATOM     20  O   UNL d   1      -9.987  18.989  13.782  0.00  0.00    -0.361 OA
ATOM     21  H   UNL d   1      -9.747  18.894  14.345  0.00  0.00     0.217 HD
ENDBRANCH  10  20
TORSDOF 3
ENDMDL
MODEL 3
REMARK VINA RESULT:    -8.233     47.192     48.194
REMARK INTER + INTRA:          -8.020
REMARK INTER:                  -9.261
REMARK INTRA:                   1.241
REMARK UNBOUND:                 1.176
REMARK  3 active torsions:
REMARK  status: ('A' for Active; 'I' for Inactive)
REMARK    1  A    between atoms: O_2  and  C_10 
REMARK    2  A    between atoms: O_4  and  C_13 
REMARK    3  A    between atoms: C_7  and  C_9 
ROOT
ATOM      1  O   UNL d   1      -9.439  16.103  11.356  0.00  0.00    -0.309 OA
ATOM      2  O   UNL d   1      -8.623  17.967  13.560  0.00  0.00    -0.287 OA
ATOM      3  C   UNL d   1      -8.198  16.902  12.262  0.00  0.00     0.081 A 
ATOM      4  C   UNL d   1      -8.470  16.280  11.527  0.00  0.00     0.095 A 
ATOM      5  C   UNL d   1     -10.136  16.546  11.919  0.00  0.00     0.090 A 
ATOM      6  C   UNL d   1      -8.895  17.346  12.825  0.00  0.00     0.190 A 
ATOM      7  C   UNL d   1      -7.193  17.096  12.452  0.00  0.00     0.085 A 
ATOM      8  C   UNL d   1      -9.864  17.168  12.654  0.00  0.00     0.094 A 
ATOM      9  C   UNL d   1      -7.756  15.810  10.932  0.00  0.00     0.075 A 
ATOM     10  C   UNL d   1      -6.744  15.991  11.105  0.00  0.00     0.071 A 
ATOM     11  C   UNL d   1      -6.461  16.638  11.869  0.00  0.00     0.074 A 
ENDROOT
BRANCH   5  12
ATOM     12  C   UNL d   1     -11.105  16.369  11.748  0.00  0.00    -0.002 A 
ATOM     13  C   UNL d   1     -11.411  15.445  11.516  0.00  0.00     0.014 A 
ATOM     14  C   UNL d   1     -12.380  15.267  11.345  0.00  0.00     0.001 A 
ATOM     15  C   UNL d   1     -13.043  16.013  11.405  0.00  0.00     0.000 A 
ATOM     16  C   UNL d   1     -12.737  16.937  11.637  0.00  0.00     0.001 A 
ATOM     17  C   UNL d   1     -11.768  17.114  11.809  0.00  0.00     0.014 A 
ENDBRANCH   5  12
BRANCH   7  18
ATOM     18  O   UNL d   1      -6.932  17.720  13.189  0.00  0.00    -0.360 OA
ATOM     19  H   UNL d   1      -6.966  17.533  13.779  0.00  0.00     0.217 HD
ENDBRANCH   7  18
BRANCH  10  20
ATOM     20  O   UNL d   1      -6.050  15.545  10.539  0.00  0.00    -0.361 OA
ATOM     21  H   UNL d   1      -5.450  15.602  10.683  0.00  0.00     0.217 HD
ENDBRANCH  10  20
TORSDOF 3
ENDMDL
MODEL 4
REMARK VINA RESULT:    -8.057     25.298     26.250
REMARK INTER + INTRA:          -7.823
REMARK INTER:                  -8.842
REMARK INTRA:                   1.018
REMARK UNBOUND:                 1.176
REMARK  3 active torsions:
REMARK  status: ('A' for Active; 'I' for Inactive)
REMARK    1  A    between atoms: O_2  and  C_10 
REMARK    2  A    between atoms: O_4  and  C_13 
REMARK    3  A    between atoms: C_7  and  C_9 
ROOT
ATOM      1  O   UNL d   1      -4.614  -6.753  11.462  0.00  0.00    -0.309 OA
ATOM      2  O   UNL d   1      -6.195  -6.518  14.000  0.00  0.00    -0.287 OA
ATOM      3  C   UNL d   1      -4.676  -6.470  13.169  0.00  0.00     0.081 A 
ATOM      4  C   UNL d   1      -4.149  -6.549  12.323  0.00  0.00     0.095 A 
ATOM      5  C   UNL d   1      -5.606  -6.878  11.446  0.00  0.00     0.090 A 
ATOM      6  C   UNL d   1      -5.668  -6.596  13.154  0.00  0.00     0.190 A 
ATOM      7  C   UNL d   1      -4.205  -6.259  14.074  0.00  0.00     0.085 A 
ATOM      8  C   UNL d   1      -6.133  -6.800  12.293  0.00  0.00     0.094 A 
ATOM      9  C   UNL d   1      -3.115  -6.421  12.323  0.00  0.00     0.075 A 
ATOM     10  C   UNL d   1      -2.624  -6.208  13.217  0.00  0.00     0.071 A 
ATOM     11  C   UNL d   1      -3.172  -6.126  14.098  0.00  0.00     0.074 A 
ENDROOT
BRANCH   5  12
ATOM     12  C   UNL d   1      -6.070  -7.082  10.585  0.00  0.00    -0.002 A 
ATOM     13  C   UNL d   1      -6.370  -8.015  10.387  0.00  0.00     0.014 A 
ATOM     14  C   UNL d   1      -6.835  -8.219   9.525  0.00  0.00     0.001 A 
ATOM     15  C   UNL d   1      -7.000  -7.490   8.862  0.00  0.00     0.000 A 
ATOM     16  C   UNL d   1      -6.701  -6.557   9.059  0.00  0.00     0.001 A 
ATOM     17  C   UNL d   1      -6.236  -6.353   9.921  0.00  0.00     0.014 A 
ENDBRANCH   5  12
BRANCH   7  18
ATOM     18  O   UNL d   1      -4.742  -6.182  14.914  0.00  0.00    -0.360 OA
ATOM     19  H   UNL d   1      -5.030  -5.651  15.050  0.00  0.00     0.217 HD
ENDBRANCH   7  18
BRANCH  10  20
ATOM     20  O   UNL d   1      -1.631  -6.083  13.228  0.00  0.00    -0.361 OA
ATOM     21  H   UNL d   1      -1.297  -6.301  13.702  0.00  0.00     0.217 HD
ENDBRANCH  10  20
TORSDOF 3
ENDMDL
MODEL 5
REMARK VINA RESULT:    -8.044     25.385     25.920
REMARK INTER + INTRA:          -7.809
REMARK INTER:                  -8.996
REMARK INTRA:                   1.187
REMARK UNBOUND:                 1.176
REMARK  3 active torsions:
REMARK  status: ('A' for Active; 'I' for Inactive)
REMARK    1  A    between atoms: O_2  and  C_10 
REMARK    2  A    between atoms: O_4  and  C_13 
REMARK    3  A    between atoms: C_7  and  C_9 
ROOT
ATOM      1  O   UNL d   1      -4.952  -6.645  12.366  0.00  0.00    -0.309 OA
ATOM      2  O   UNL d   1      -2.023  -6.723  11.723  0.00  0.00    -0.287 OA
ATOM      3  C   UNL d   1      -3.306  -6.382  12.836  0.00  0.00     0.081 A 
ATOM      4  C   UNL d   1      -4.282  -6.356  13.050  0.00  0.00     0.095 A 
ATOM      5  C   UNL d   1      -4.645  -6.960  11.467  0.00  0.00     0.090 A 
ATOM      6  C   UNL d   1      -2.999  -6.697  11.937  0.00  0.00     0.190 A 
ATOM      7  C   UNL d   1      -2.597  -6.085  13.538  0.00  0.00     0.085 A 
ATOM      8  C   UNL d   1      -3.669  -6.985  11.253  0.00  0.00     0.094 A 
ATOM      9  C   UNL d   1      -4.617  -6.031  13.981  0.00  0.00     0.075 A 
ATOM     10  C   UNL d   1      -3.926  -5.729  14.699  0.00  0.00     0.071 A 
ATOM     11  C   UNL d   1      -2.909  -5.756  14.476  0.00  0.00     0.074 A 
ENDROOT
BRANCH   5  12
ATOM     12  C   UNL d   1      -5.315  -7.248  10.783  0.00  0.00    -0.002 A 
ATOM     13  C   UNL d   1      -5.244  -6.916   9.843  0.00  0.00     0.014 A 
ATOM     14  C   UNL d   1      -5.914  -7.205   9.159  0.00  0.00     0.001 A 
ATOM     15  C   UNL d   1      -6.655  -7.826   9.415  0.00  0.00     0.000 A 
ATOM     16  C   UNL d   1      -6.726  -8.158  10.355  0.00  0.00     0.001 A 
ATOM     17  C   UNL d   1      -6.056  -7.869  11.039  0.00  0.00     0.014 A 
ENDBRANCH   5  12
BRANCH   7  18
ATOM     18  O   UNL d   1      -1.623  -6.115  13.313  0.00  0.00    -0.360 OA
ATOM     19  H   UNL d   1      -1.438  -6.346  12.769  0.00  0.00     0.217 HD
ENDBRANCH   7  18
BRANCH  10  20
ATOM     20  O   UNL d   1      -4.237  -5.415  15.596  0.00  0.00    -0.361 OA
ATOM     21  H   UNL d   1      -4.730  -5.043  15.640  0.00  0.00     0.217 HD
ENDBRANCH  10  20
TORSDOF 3
ENDMDL
