MODEL 1
REMARK VINA RESULT:    -8.108      0.000      0.000
REMARK INTER + INTRA:          -7.947
REMARK INTER:                  -9.988
REMARK INTRA:                   2.041
REMARK UNBOUND:                 1.819
REMARK  5 active torsions:
REMARK  status: ('A' for Active; 'I' for Inactive)
REMARK    1  A    between atoms: O_2  and  C_13 
REMARK    2  A    between atoms: O_3  and  C_19 
REMARK    3  A    between atoms: O_5  and  C_17 
REMARK    4  A    between atoms: O_6  and  C_21 
REMARK    5  A    between atoms: C_8  and  C_10 
ROOT
ATOM      1  O   UNL d   1     -11.771  17.060  12.497  0.00  0.00    -0.309 OA
ATOM      2  O   UNL d   1     -10.403  16.194   9.972  0.00  0.00    -0.287 OA
ATOM      3  C   UNL d   1     -10.318  16.808  11.589  0.00  0.00     0.081 A 
ATOM      4  C   UNL d   1     -12.312  16.735  11.722  0.00  0.00     0.090 A 
ATOM      5  C   UNL d   1     -10.774  17.097  12.431  0.00  0.00     0.095 A 
ATOM      6  C   UNL d   1     -10.859  16.483  10.813  0.00  0.00     0.190 A 
ATOM      7  C   UNL d   1     -11.856  16.446  10.880  0.00  0.00     0.094 A 
ATOM      8  C   UNL d   1      -9.281  16.840  11.505  0.00  0.00     0.085 A 
ATOM      9  C   UNL d   1     -10.224  17.438  13.247  0.00  0.00     0.075 A 
ATOM     10  C   UNL d   1      -9.185  17.478  13.185  0.00  0.00     0.071 A 
ATOM     11  C   UNL d   1      -8.710  17.178  12.309  0.00  0.00     0.074 A 
ENDROOT
BRANCH   4  12
ATOM     12  C   UNL d   1     -13.309  16.699  11.788  0.00  0.00     0.001 A 
ATOM     13  C   UNL d   1     -13.814  17.475  12.165  0.00  0.00     0.054 A 
ATOM     14  C   UNL d   1     -14.811  17.439  12.232  0.00  0.00     0.102 A 
ATOM     15  C   UNL d   1     -15.304  16.626  11.921  0.00  0.00     0.099 A 
ATOM     16  C   UNL d   1     -14.799  15.849  11.543  0.00  0.00     0.040 A 
ATOM     17  C   UNL d   1     -13.802  15.886  11.477  0.00  0.00     0.017 A 
BRANCH  14  18
ATOM     18  O   UNL d   1     -15.316  18.215  12.609  0.00  0.00    -0.353 OA
ATOM     19  C   UNL d   1     -14.862  18.850  13.234  0.00  0.00     0.210 C 
ENDBRANCH  14  18
BRANCH  15  20
ATOM     20  O   UNL d   1     -16.301  16.589  11.987  0.00  0.00    -0.358 OA
ATOM     21  H   UNL d   1     -16.572  16.494  12.537  0.00  0.00     0.217 HD
ENDBRANCH  15  20
ENDBRANCH   4  12
BRANCH   8  22
ATOM     22  O   UNL d   1      -8.835  16.549  10.659  0.00  0.00    -0.360 OA
ATOM     23  H   UNL d   1      -8.839  15.951  10.496  0.00  0.00     0.217 HD
ENDBRANCH   8  22
BRANCH  10  24
ATOM     24  O   UNL d   1      -8.647  17.804  13.963  0.00  0.00    -0.361 OA
ATOM     25  H   UNL d   1      -8.212  18.238  13.879  0.00  0.00     0.217 HD
ENDBRANCH  10  24
TORSDOF 5
ENDMDL
MODEL 2
REMARK VINA RESULT:    -8.090      1.506      2.847
REMARK INTER + INTRA:          -7.926
REMARK INTER:                 -10.233
REMARK INTRA:                   2.307
REMARK UNBOUND:                 1.819
REMARK  5 active torsions:
REMARK  status: ('A' for Active; 'I' for Inactive)
REMARK    1  A    between atoms: O_2  and  C_13 
REMARK    2  A    between atoms: O_3  and  C_19 
REMARK    3  A    between atoms: O_5  and  C_17 
REMARK    4  A    between atoms: O_6  and  C_21 
REMARK    5  A    between atoms: C_8  and  C_10 
ROOT
ATOM      1  O   UNL d   1      -9.475  16.262  11.425  0.00  0.00    -0.309 OA
ATOM      2  O   UNL d   1      -8.416  18.088  13.558  0.00  0.00    -0.287 OA
ATOM      3  C   UNL d   1      -8.136  16.972  12.263  0.00  0.00     0.081 A 
ATOM      4  C   UNL d   1     -10.109  16.769  12.010  0.00  0.00     0.090 A 
ATOM      5  C   UNL d   1      -8.489  16.364  11.552  0.00  0.00     0.095 A 
ATOM      6  C   UNL d   1      -8.769  17.479  12.847  0.00  0.00     0.190 A 
ATOM      7  C   UNL d   1      -9.756  17.378  12.720  0.00  0.00     0.094 A 
ATOM      8  C   UNL d   1      -7.111  17.087  12.406  0.00  0.00     0.085 A 
ATOM      9  C   UNL d   1      -7.841  15.828  10.936  0.00  0.00     0.075 A 
ATOM     10  C   UNL d   1      -6.812  15.929  11.062  0.00  0.00     0.071 A 
ATOM     11  C   UNL d   1      -6.445  16.562  11.801  0.00  0.00     0.074 A 
ENDROOT
BRANCH   4  12
ATOM     12  C   UNL d   1     -11.096  16.668  11.883  0.00  0.00     0.001 A 
ATOM     13  C   UNL d   1     -11.724  17.322  12.305  0.00  0.00     0.054 A 
ATOM     14  C   UNL d   1     -12.711  17.221  12.178  0.00  0.00     0.102 A 
ATOM     15  C   UNL d   1     -13.069  16.465  11.630  0.00  0.00     0.099 A 
ATOM     16  C   UNL d   1     -12.441  15.811  11.208  0.00  0.00     0.040 A 
ATOM     17  C   UNL d   1     -11.455  15.912  11.335  0.00  0.00     0.017 A 
BRANCH  14  18
ATOM     18  O   UNL d   1     -13.339  17.875  12.599  0.00  0.00    -0.353 OA
ATOM     19  C   UNL d   1     -13.067  18.366  13.427  0.00  0.00     0.210 C 
ENDBRANCH  14  18
BRANCH  15  20
ATOM     20  O   UNL d   1     -14.056  16.364  11.503  0.00  0.00    -0.358 OA
ATOM     21  H   UNL d   1     -14.338  16.643  11.027  0.00  0.00     0.217 HD
ENDBRANCH  15  20
ENDBRANCH   4  12
BRANCH   8  22
ATOM     22  O   UNL d   1      -6.769  17.699  13.120  0.00  0.00    -0.360 OA
ATOM     23  H   UNL d   1      -6.473  17.465  13.612  0.00  0.00     0.217 HD
ENDBRANCH   8  22
BRANCH  10  24
ATOM     24  O   UNL d   1      -6.182  15.420  10.475  0.00  0.00    -0.361 OA
ATOM     25  H   UNL d   1      -6.400  15.096   9.994  0.00  0.00     0.217 HD
ENDBRANCH  10  24
TORSDOF 5
ENDMDL
MODEL 3
REMARK VINA RESULT:    -8.020     24.384     25.094
REMARK INTER + INTRA:          -7.842
REMARK INTER:                  -9.814
REMARK INTRA:                   1.972
REMARK UNBOUND:                 1.819
REMARK  5 active torsions:
REMARK  status: ('A' for Active; 'I' for Inactive)
REMARK    1  A    between atoms: O_2  and  C_13 
REMARK    2  A    between atoms: O_3  and  C_19 
REMARK    3  A    between atoms: O_5  and  C_17 
REMARK    4  A    between atoms: O_6  and  C_21 
REMARK    5  A    between atoms: C_8  and  C_10 
ROOT
ATOM      1  O   UNL d   1      -4.977  -6.747  12.377  0.00  0.00    -0.309 OA
ATOM      2  O   UNL d   1      -2.060  -6.691  11.678  0.00  0.00    -0.287 OA
ATOM      3  C   UNL d   1      -3.336  -6.410  12.816  0.00  0.00     0.081 A 
ATOM      4  C   UNL d   1      -4.673  -7.046  11.472  0.00  0.00     0.090 A 
ATOM      5  C   UNL d   1      -4.308  -6.428  13.048  0.00  0.00     0.095 A 
ATOM      6  C   UNL d   1      -3.032  -6.709  11.911  0.00  0.00     0.190 A 
ATOM      7  C   UNL d   1      -3.701  -7.028  11.239  0.00  0.00     0.094 A 
ATOM      8  C   UNL d   1      -2.628  -6.081  13.505  0.00  0.00     0.085 A 
ATOM      9  C   UNL d   1      -4.639  -6.119  13.987  0.00  0.00     0.075 A 
ATOM     10  C   UNL d   1      -3.948  -5.786  14.691  0.00  0.00     0.071 A 
ATOM     11  C   UNL d   1      -2.936  -5.767  14.449  0.00  0.00     0.074 A 
ENDROOT
BRANCH   4  12
ATOM     12  C   UNL d   1      -5.342  -7.365  10.801  0.00  0.00     0.001 A 
ATOM     13  C   UNL d   1      -5.350  -6.975   9.880  0.00  0.00     0.054 A 
ATOM     14  C   UNL d   1      -6.019  -7.294   9.208  0.00  0.00     0.102 A 
ATOM     15  C   UNL d   1      -6.680  -8.001   9.457  0.00  0.00     0.099 A 
ATOM     16  C   UNL d   1      -6.672  -8.391  10.379  0.00  0.00     0.040 A 
ATOM     17  C   UNL d   1      -6.003  -8.072  11.050  0.00  0.00     0.017 A 
BRANCH  14  18
ATOM     18  O   UNL d   1      -6.027  -6.904   8.287  0.00  0.00    -0.353 OA
ATOM     19  C   UNL d   1      -5.332  -6.237   8.020  0.00  0.00     0.210 C 
ENDBRANCH  14  18
BRANCH  15  20
ATOM     20  O   UNL d   1      -7.349  -8.320   8.786  0.00  0.00    -0.358 OA
ATOM     21  H   UNL d   1      -7.368  -8.063   8.222  0.00  0.00     0.217 HD
ENDBRANCH  15  20
ENDBRANCH   4  12
BRANCH   8  22
ATOM     22  O   UNL d   1      -1.658  -6.066  13.261  0.00  0.00    -0.360 OA
ATOM     23  H   UNL d   1      -1.253  -5.764  13.620  0.00  0.00     0.217 HD
ENDBRANCH   8  22
BRANCH  10  24
ATOM     24  O   UNL d   1      -4.256  -5.487  15.595  0.00  0.00    -0.361 OA
ATOM     25  H   UNL d   1      -4.671  -5.030  15.645  0.00  0.00     0.217 HD
ENDBRANCH  10  24
TORSDOF 5
ENDMDL
MODEL 4
REMARK VINA RESULT:    -7.987      1.263      2.335
REMARK INTER + INTRA:          -7.801
REMARK INTER:                  -9.715
REMARK INTRA:                   1.914
REMARK UNBOUND:                 1.819
REMARK  5 active torsions:
REMARK  status: ('A' for Active; 'I' for Inactive)
REMARK    1  A    between atoms: O_2  and  C_13 
REMARK    2  A    between atoms: O_3  and  C_19 
REMARK    3  A    between atoms: O_5  and  C_17 
REMARK    4  A    between atoms: O_6  and  C_21 
REMARK    5  A    between atoms: C_8  and  C_10 
ROOT
ATOM      1  O   UNL d   1     -11.721  16.504  11.572  0.00  0.00    -0.309 OA
ATOM      2  O   UNL d   1     -11.266  18.588  13.681  0.00  0.00    -0.287 OA
ATOM      3  C   UNL d   1     -10.644  17.382  12.605  0.00  0.00     0.081 A 
ATOM      4  C   UNL d   1     -12.495  17.015  11.945  0.00  0.00     0.090 A 
ATOM      5  C   UNL d   1     -10.795  16.687  11.902  0.00  0.00     0.095 A 
ATOM      6  C   UNL d   1     -11.418  17.893  12.978  0.00  0.00     0.190 A 
ATOM      7  C   UNL d   1     -12.344  17.710  12.648  0.00  0.00     0.094 A 
ATOM      8  C   UNL d   1      -9.685  17.584  12.959  0.00  0.00     0.085 A 
ATOM      9  C   UNL d   1      -9.999  16.146  11.504  0.00  0.00     0.075 A 
ATOM     10  C   UNL d   1      -9.031  16.332  11.843  0.00  0.00     0.071 A 
ATOM     11  C   UNL d   1      -8.874  17.056  12.575  0.00  0.00     0.074 A 
ENDROOT
BRANCH   4  12
ATOM     12  C   UNL d   1     -13.421  16.831  11.615  0.00  0.00     0.001 A 
ATOM     13  C   UNL d   1     -13.860  15.956  11.819  0.00  0.00     0.054 A 
ATOM     14  C   UNL d   1     -14.786  15.772  11.488  0.00  0.00     0.102 A 
ATOM     15  C   UNL d   1     -15.273  16.464  10.955  0.00  0.00     0.099 A 
ATOM     16  C   UNL d   1     -14.834  17.339  10.751  0.00  0.00     0.040 A 
ATOM     17  C   UNL d   1     -13.908  17.523  11.081  0.00  0.00     0.017 A 
BRANCH  14  18
ATOM     18  O   UNL d   1     -15.225  14.897  11.692  0.00  0.00    -0.353 OA
ATOM     19  C   UNL d   1     -14.667  14.088  11.872  0.00  0.00     0.210 C 
ENDBRANCH  14  18
BRANCH  15  20
ATOM     20  O   UNL d   1     -16.199  16.280  10.624  0.00  0.00    -0.358 OA
ATOM     21  H   UNL d   1     -16.307  16.230  10.016  0.00  0.00     0.217 HD
ENDBRANCH  15  20
ENDBRANCH   4  12
BRANCH   8  22
ATOM     22  O   UNL d   1      -9.545  18.281  13.662  0.00  0.00    -0.360 OA
ATOM     23  H   UNL d   1      -9.047  18.255  14.029  0.00  0.00     0.217 HD
ENDBRANCH   8  22
BRANCH  10  24
ATOM     24  O   UNL d   1      -8.259  15.819  11.468  0.00  0.00    -0.361 OA
ATOM     25  H   UNL d   1      -7.715  15.816  11.765  0.00  0.00     0.217 HD
ENDBRANCH  10  24
TORSDOF 5
ENDMDL
MODEL 5
REMARK VINA RESULT:    -7.942     23.777     24.709
REMARK INTER + INTRA:          -7.747
REMARK INTER:                  -9.576
REMARK INTRA:                   1.829
REMARK UNBOUND:                 1.819
REMARK  5 active torsions:
REMARK  status: ('A' for Active; 'I' for Inactive)
REMARK    1  A    between atoms: O_2  and  C_13 
REMARK    2  A    between atoms: O_3  and  C_19 
REMARK    3  A    between atoms: O_5  and  C_17 
REMARK    4  A    between atoms: O_6  and  C_21 
REMARK    5  A    between atoms: C_8  and  C_10 
ROOT
ATOM      1  O   UNL d   1      -4.603  -6.726  11.852  0.00  0.00    -0.309 OA
ATOM      2  O   UNL d   1      -6.194  -6.382  14.372  0.00  0.00    -0.287 OA
ATOM      3  C   UNL d   1      -4.673  -6.360  13.544  0.00  0.00     0.081 A 
ATOM      4  C   UNL d   1      -5.593  -6.862  11.840  0.00  0.00     0.090 A 
ATOM      5  C   UNL d   1      -4.143  -6.475  12.704  0.00  0.00     0.095 A 
ATOM      6  C   UNL d   1      -5.664  -6.496  13.532  0.00  0.00     0.190 A 
ATOM      7  C   UNL d   1      -6.124  -6.747  12.680  0.00  0.00     0.094 A 
ATOM      8  C   UNL d   1      -4.207  -6.100  14.438  0.00  0.00     0.085 A 
ATOM      9  C   UNL d   1      -3.110  -6.337  12.700  0.00  0.00     0.075 A 
ATOM     10  C   UNL d   1      -2.624  -6.076  13.584  0.00  0.00     0.071 A 
ATOM     11  C   UNL d   1      -3.176  -5.956  14.458  0.00  0.00     0.074 A 
ENDROOT
BRANCH   4  12
ATOM     12  C   UNL d   1      -6.053  -7.112  10.988  0.00  0.00     0.001 A 
ATOM     13  C   UNL d   1      -6.319  -6.403  10.336  0.00  0.00     0.054 A 
ATOM     14  C   UNL d   1      -6.779  -6.653   9.484  0.00  0.00     0.102 A 
ATOM     15  C   UNL d   1      -6.974  -7.614   9.285  0.00  0.00     0.099 A 
ATOM     16  C   UNL d   1      -6.708  -8.323   9.938  0.00  0.00     0.040 A 
ATOM     17  C   UNL d   1      -6.248  -8.073  10.789  0.00  0.00     0.017 A 
BRANCH  14  18
ATOM     18  O   UNL d   1      -7.044  -5.943   8.832  0.00  0.00    -0.353 OA
ATOM     19  C   UNL d   1      -6.993  -4.980   9.093  0.00  0.00     0.210 C 
ENDBRANCH  14  18
BRANCH  15  20
ATOM     20  O   UNL d   1      -7.434  -7.864   8.433  0.00  0.00    -0.358 OA
ATOM     21  H   UNL d   1      -7.794  -7.452   8.142  0.00  0.00     0.217 HD
ENDBRANCH  15  20
ENDBRANCH   4  12
BRANCH   8  22
ATOM     22  O   UNL d   1      -4.748  -5.988  15.272  0.00  0.00    -0.360 OA
ATOM     23  H   UNL d   1      -5.187  -6.401  15.414  0.00  0.00     0.217 HD
ENDBRANCH   8  22
BRANCH  10  24
ATOM     24  O   UNL d   1      -1.633  -5.940  13.591  0.00  0.00    -0.361 OA
ATOM     25  H   UNL d   1      -1.254  -6.429  13.636  0.00  0.00     0.217 HD
ENDBRANCH  10  24
TORSDOF 5
ENDMDL
