MODEL 1
REMARK VINA RESULT:    -4.070      0.000      0.000
REMARK INTER + INTRA:          -4.189
REMARK INTER:                  -4.189
REMARK INTRA:                   0.000
REMARK UNBOUND:                 0.000
REMARK  1 active torsions:
REMARK  status: ('A' for Active; 'I' for Inactive)
REMARK    1  A    between atoms: O_1  and  N_3 
REMARK       I    between atoms: N_3  and  C_4 
ROOT
ATOM      1  O   UNL d   1     -16.611 -23.470   2.482  0.00  0.00    -0.272 OA
ATOM      2  N   UNL d   1     -15.409 -23.894   1.310  0.00  0.00    -0.238 N 
ATOM      3  C   UNL d   1     -16.303 -24.052   1.730  0.00  0.00     0.236 C 
ATOM      4  C   UNL d   1     -16.888 -24.791   1.398  0.00  0.00     0.119 C 
ATOM      5  H   UNL d   1     -15.218 -24.255   0.843  0.00  0.00     0.197 HD
ENDROOT
BRANCH   2   6
ATOM      6  O   UNL d   1     -14.824 -23.155   1.642  0.00  0.00    -0.287 OA
ATOM      7  H   UNL d   1     -15.051 -22.580   1.696  0.00  0.00     0.244 HD
ENDBRANCH   2   6
TORSDOF 1
ENDMDL
MODEL 2
REMARK VINA RESULT:    -4.032     41.033     41.216
REMARK INTER + INTRA:          -4.150
REMARK INTER:                  -4.150
REMARK INTRA:                   0.000
REMARK UNBOUND:                 0.000
REMARK  1 active torsions:
REMARK  status: ('A' for Active; 'I' for Inactive)
REMARK    1  A    between atoms: O_1  and  N_3 
REMARK       I    between atoms: N_3  and  C_4 
ROOT
ATOM      1  O   UNL d   1     -15.525  16.789  12.776  0.00  0.00    -0.272 OA
ATOM      2  N   UNL d   1     -16.168  15.229  13.164  0.00  0.00    -0.238 N 
ATOM      3  C   UNL d   1     -15.681  15.832  12.533  0.00  0.00     0.236 C 
ATOM      4  C   UNL d   1     -15.349  15.477  11.659  0.00  0.00     0.119 C 
ATOM      5  H   UNL d   1     -16.265  14.635  13.013  0.00  0.00     0.197 HD
ENDROOT
BRANCH   2   6
ATOM      6  O   UNL d   1     -16.500  15.583  14.038  0.00  0.00    -0.287 OA
ATOM      7  H   UNL d   1     -16.239  16.087  14.287  0.00  0.00     0.244 HD
ENDBRANCH   2   6
TORSDOF 1
ENDMDL
MODEL 3
REMARK VINA RESULT:    -3.924     30.185     30.377
REMARK INTER + INTRA:          -4.039
REMARK INTER:                  -4.039
REMARK INTRA:                   0.000
REMARK UNBOUND:                 0.000
REMARK  1 active torsions:
REMARK  status: ('A' for Active; 'I' for Inactive)
REMARK    1  A    between atoms: O_1  and  N_3 
REMARK       I    between atoms: N_3  and  C_4 
ROOT
ATOM      1  O   UNL d   1       2.149 -26.417  25.334  0.00  0.00    -0.272 OA
ATOM      2  N   UNL d   1       1.310 -25.567  26.589  0.00  0.00    -0.238 N 
ATOM      3  C   UNL d   1       1.933 -26.295  26.303  0.00  0.00     0.236 C 
ATOM      4  C   UNL d   1       2.341 -26.901  26.987  0.00  0.00     0.119 C 
ATOM      5  H   UNL d   1       1.177 -25.491  27.190  0.00  0.00     0.197 HD
ENDROOT
BRANCH   2   6
ATOM      6  O   UNL d   1       0.903 -24.961  25.906  0.00  0.00    -0.287 OA
ATOM      7  H   UNL d   1       0.372 -25.120  25.628  0.00  0.00     0.244 HD
ENDBRANCH   2   6
TORSDOF 1
ENDMDL
MODEL 4
REMARK VINA RESULT:    -3.696     39.673     39.928
REMARK INTER + INTRA:          -3.804
REMARK INTER:                  -3.804
REMARK INTRA:                   0.000
REMARK UNBOUND:                 0.000
REMARK  1 active torsions:
REMARK  status: ('A' for Active; 'I' for Inactive)
REMARK    1  A    between atoms: O_1  and  N_3 
REMARK       I    between atoms: N_3  and  C_4 
ROOT
ATOM      1  O   UNL d   1      -8.875  14.663  -9.598  0.00  0.00    -0.272 OA
ATOM      2  N   UNL d   1     -10.231  13.646  -9.243  0.00  0.00    -0.238 N 
ATOM      3  C   UNL d   1      -9.251  13.834  -9.184  0.00  0.00     0.236 C 
ATOM      4  C   UNL d   1      -8.646  13.193  -8.710  0.00  0.00     0.119 C 
ATOM      5  H   UNL d   1     -10.464  13.132  -8.986  0.00  0.00     0.197 HD
ENDROOT
BRANCH   2   6
ATOM      6  O   UNL d   1     -10.835  14.287  -9.717  0.00  0.00    -0.287 OA
ATOM      7  H   UNL d   1     -10.707  14.894  -9.714  0.00  0.00     0.244 HD
ENDBRANCH   2   6
TORSDOF 1
ENDMDL
MODEL 5
REMARK VINA RESULT:    -3.659     30.521     30.919
REMARK INTER + INTRA:          -3.766
REMARK INTER:                  -3.766
REMARK INTRA:                   0.000
REMARK UNBOUND:                 0.000
REMARK  1 active torsions:
REMARK  status: ('A' for Active; 'I' for Inactive)
REMARK    1  A    between atoms: O_1  and  N_3 
REMARK       I    between atoms: N_3  and  C_4 
ROOT
ATOM      1  O   UNL d   1       5.246  -7.108  17.822  0.00  0.00    -0.272 OA
ATOM      2  N   UNL d   1       4.540  -7.123  16.240  0.00  0.00    -0.238 N 
ATOM      3  C   UNL d   1       5.255  -6.812  16.867  0.00  0.00     0.236 C 
ATOM      4  C   UNL d   1       5.978  -6.204  16.539  0.00  0.00     0.119 C 
ATOM      5  H   UNL d   1       4.546  -6.939  15.648  0.00  0.00     0.197 HD
ENDROOT
BRANCH   2   6
ATOM      6  O   UNL d   1       3.817  -7.730  16.569  0.00  0.00    -0.287 OA
ATOM      7  H   UNL d   1       3.963  -8.256  16.863  0.00  0.00     0.244 HD
ENDBRANCH   2   6
TORSDOF 1
ENDMDL
