MODEL 1
REMARK VINA RESULT:   -12.110      0.000      0.000
REMARK INTER + INTRA:          -5.018
REMARK INTER:                 -15.503
REMARK INTRA:                  10.485
REMARK UNBOUND:                10.631
REMARK  5 active torsions:
REMARK  status: ('A' for Active; 'I' for Inactive)
REMARK    1  A    between atoms: C_6  and  C_13 
REMARK    2  A    between atoms: C_13  and  C_19 
REMARK    3  A    between atoms: C_19  and  C_24 
REMARK    4  A    between atoms: C_24  and  C_25 
REMARK    5  A    between atoms: C_25  and  C_26 
ROOT
ATOM      1  O   UNL d   1      -3.789   1.689 -21.896  0.00  0.00    -0.293 OA
ATOM      2  C   UNL d   1      -3.617   0.202 -15.883  0.00  0.00    -0.036 A 
ATOM      3  C   UNL d   1      -3.037  -0.293 -16.529  0.00  0.00    -0.002 A 
ATOM      4  C   UNL d   1      -3.059  -0.060 -17.501  0.00  0.00    -0.004 A 
ATOM      5  C   UNL d   1      -3.661   0.670 -17.827  0.00  0.00     0.002 A 
ATOM      6  C   UNL d   1      -3.452  -0.173 -14.978  0.00  0.00    -0.002 A 
ATOM      7  C   UNL d   1      -4.218   0.932 -16.208  0.00  0.00     0.010 A 
ATOM      8  C   UNL d   1      -2.520  -0.971 -16.018  0.00  0.00     0.006 A 
ATOM      9  C   UNL d   1      -3.694   0.925 -18.836  0.00  0.00    -0.016 A 
ATOM     10  C   UNL d   1      -4.240   1.166 -17.180  0.00  0.00     0.007 A 
ATOM     11  C   UNL d   1      -2.776  -0.897 -15.060  0.00  0.00     0.006 A 
ATOM     12  C   UNL d   1      -2.450  -0.585 -18.163  0.00  0.00     0.010 A 
ATOM     13  C   UNL d   1      -4.196   0.698 -15.236  0.00  0.00     0.016 C 
ATOM     14  C   UNL d   1      -3.093   0.413 -19.516  0.00  0.00    -0.068 A 
ATOM     15  C   UNL d   1      -2.467  -0.347 -19.178  0.00  0.00     0.035 A 
ATOM     16  C   UNL d   1      -4.355   1.721 -19.165  0.00  0.00     0.022 A 
ATOM     17  C   UNL d   1      -4.271   1.416 -18.183  0.00  0.00     0.020 C 
ATOM     18  C   UNL d   1      -4.390   1.986 -20.217  0.00  0.00     0.084 A 
ATOM     19  C   UNL d   1      -3.111   0.661 -20.572  0.00  0.00     0.053 A 
ATOM     20  C   UNL d   1      -3.764   1.453 -20.925  0.00  0.00     0.149 A 
ENDROOT
BRANCH   6  21
ATOM     21  C   UNL d   1      -3.892   0.125 -14.130  0.00  0.00    -0.014 C 
ATOM     22  C   UNL d   1      -3.577   0.955 -13.669  0.00  0.00     0.010 C 
BRANCH  21  23
ATOM     23  C   UNL d   1      -4.646  -0.407 -13.743  0.00  0.00     0.005 C 
BRANCH  23  24
ATOM     24  C   UNL d   1      -4.719  -0.521 -12.752  0.00  0.00     0.005 C 
BRANCH  24  25
ATOM     25  C   UNL d   1      -5.346  -1.202 -12.373  0.00  0.00    -0.015 C 
ATOM     26  C   UNL d   1      -5.693  -1.939 -12.953  0.00  0.00     0.010 C 
BRANCH  25  27
ATOM     27  C   UNL d   1      -5.626  -1.145 -11.415  0.00  0.00    -0.019 C 
ATOM     28  C   UNL d   1      -5.443  -1.909 -10.795  0.00  0.00     0.010 C 
ATOM     29  C   UNL d   1      -6.088  -0.325 -11.076  0.00  0.00     0.010 C 
ENDBRANCH  25  27
ENDBRANCH  24  25
ENDBRANCH  23  24
ENDBRANCH  21  23
ENDBRANCH   6  21
TORSDOF 5
ENDMDL
MODEL 2
REMARK VINA RESULT:   -11.917      2.332      5.007
REMARK INTER + INTRA:          -4.769
REMARK INTER:                 -15.217
REMARK INTRA:                  10.448
REMARK UNBOUND:                10.631
REMARK  5 active torsions:
REMARK  status: ('A' for Active; 'I' for Inactive)
REMARK    1  A    between atoms: C_6  and  C_13 
REMARK    2  A    between atoms: C_13  and  C_19 
REMARK    3  A    between atoms: C_19  and  C_24 
REMARK    4  A    between atoms: C_24  and  C_25 
REMARK    5  A    between atoms: C_25  and  C_26 
ROOT
ATOM      1  O   UNL d   1      -3.006  -0.558 -17.474  0.00  0.00    -0.293 OA
ATOM      2  C   UNL d   1      -5.527  -1.665 -11.922  0.00  0.00    -0.036 A 
ATOM      3  C   UNL d   1      -5.168  -0.754 -12.127  0.00  0.00    -0.002 A 
ATOM      4  C   UNL d   1      -4.760  -0.567 -13.021  0.00  0.00    -0.004 A 
ATOM      5  C   UNL d   1      -4.710  -1.291 -13.709  0.00  0.00     0.002 A 
ATOM      6  C   UNL d   1      -5.886  -1.648 -10.995  0.00  0.00    -0.002 A 
ATOM      7  C   UNL d   1      -5.477  -2.389 -12.610  0.00  0.00     0.010 A 
ATOM      8  C   UNL d   1      -5.309  -0.183 -11.326  0.00  0.00     0.006 A 
ATOM      9  C   UNL d   1      -4.288  -1.112 -14.644  0.00  0.00    -0.016 A 
ATOM     10  C   UNL d   1      -5.069  -2.202 -13.503  0.00  0.00     0.007 A 
ATOM     11  C   UNL d   1      -5.752  -0.735 -10.627  0.00  0.00     0.006 A 
ATOM     12  C   UNL d   1      -4.390   0.386 -13.220  0.00  0.00     0.010 A 
ATOM     13  C   UNL d   1      -5.885  -2.575 -11.716  0.00  0.00     0.016 C 
ATOM     14  C   UNL d   1      -3.912  -0.166 -14.865  0.00  0.00    -0.068 A 
ATOM     15  C   UNL d   1      -3.963   0.588 -14.149  0.00  0.00     0.035 A 
ATOM     16  C   UNL d   1      -4.245  -1.913 -15.374  0.00  0.00     0.022 A 
ATOM     17  C   UNL d   1      -4.649  -2.020 -14.431  0.00  0.00     0.020 C 
ATOM     18  C   UNL d   1      -3.805  -1.726 -16.349  0.00  0.00     0.084 A 
ATOM     19  C   UNL d   1      -3.467   0.045 -15.832  0.00  0.00     0.053 A 
ATOM     20  C   UNL d   1      -3.414  -0.741 -16.579  0.00  0.00     0.149 A 
ENDROOT
BRANCH   6  21
ATOM     21  C   UNL d   1      -6.309  -2.417 -10.516  0.00  0.00    -0.014 C 
ATOM     22  C   UNL d   1      -7.295  -2.570 -10.588  0.00  0.00     0.010 C 
BRANCH  21  23
ATOM     23  C   UNL d   1      -5.746  -3.034  -9.965  0.00  0.00     0.005 C 
BRANCH  23  24
ATOM     24  C   UNL d   1      -6.051  -3.305  -9.051  0.00  0.00     0.005 C 
BRANCH  24  25
ATOM     25  C   UNL d   1      -5.446  -3.842  -8.462  0.00  0.00    -0.015 C 
ATOM     26  C   UNL d   1      -5.068  -4.707  -8.791  0.00  0.00     0.010 C 
BRANCH  25  27
ATOM     27  C   UNL d   1      -5.220  -3.513  -7.546  0.00  0.00    -0.019 C 
ATOM     28  C   UNL d   1      -4.289  -3.211  -7.339  0.00  0.00     0.010 C 
ATOM     29  C   UNL d   1      -5.925  -3.484  -6.836  0.00  0.00     0.010 C 
ENDBRANCH  25  27
ENDBRANCH  24  25
ENDBRANCH  23  24
ENDBRANCH  21  23
ENDBRANCH   6  21
TORSDOF 5
ENDMDL
MODEL 3
REMARK VINA RESULT:   -11.768      2.802      6.685
REMARK INTER + INTRA:          -4.577
REMARK INTER:                 -14.971
REMARK INTRA:                  10.394
REMARK UNBOUND:                10.631
REMARK  5 active torsions:
REMARK  status: ('A' for Active; 'I' for Inactive)
REMARK    1  A    between atoms: C_6  and  C_13 
REMARK    2  A    between atoms: C_13  and  C_19 
REMARK    3  A    between atoms: C_19  and  C_24 
REMARK    4  A    between atoms: C_24  and  C_25 
REMARK    5  A    between atoms: C_25  and  C_26 
ROOT
ATOM      1  O   UNL d   1      -5.946  -1.822  -9.290  0.00  0.00    -0.293 OA
ATOM      2  C   UNL d   1      -4.524  -0.273 -15.120  0.00  0.00    -0.036 A 
ATOM      3  C   UNL d   1      -4.557  -1.238 -14.861  0.00  0.00    -0.002 A 
ATOM      4  C   UNL d   1      -4.786  -1.497 -13.922  0.00  0.00    -0.004 A 
ATOM      5  C   UNL d   1      -4.981  -0.789 -13.243  0.00  0.00     0.002 A 
ATOM      6  C   UNL d   1      -4.282  -0.225 -16.082  0.00  0.00    -0.002 A 
ATOM      7  C   UNL d   1      -4.719   0.434 -14.440  0.00  0.00     0.010 A 
ATOM      8  C   UNL d   1      -4.336  -1.778 -15.666  0.00  0.00     0.006 A 
ATOM      9  C   UNL d   1      -5.221  -1.043 -12.261  0.00  0.00    -0.016 A 
ATOM     10  C   UNL d   1      -4.948   0.176 -13.502  0.00  0.00     0.007 A 
ATOM     11  C   UNL d   1      -4.166  -1.152 -16.420  0.00  0.00     0.006 A 
ATOM     12  C   UNL d   1      -4.817  -2.506 -13.667  0.00  0.00     0.010 A 
ATOM     13  C   UNL d   1      -4.490   0.692 -15.379  0.00  0.00     0.016 C 
ATOM     14  C   UNL d   1      -5.258  -2.047 -11.984  0.00  0.00    -0.068 A 
ATOM     15  C   UNL d   1      -5.054  -2.783 -12.691  0.00  0.00     0.035 A 
ATOM     16  C   UNL d   1      -5.429  -0.258 -11.541  0.00  0.00     0.022 A 
ATOM     17  C   UNL d   1      -5.185  -0.080 -12.528  0.00  0.00     0.020 C 
ATOM     18  C   UNL d   1      -5.678  -0.522 -10.519  0.00  0.00     0.084 A 
ATOM     19  C   UNL d   1      -5.505  -2.335 -10.968  0.00  0.00     0.053 A 
ATOM     20  C   UNL d   1      -5.717  -1.567 -10.230  0.00  0.00     0.149 A 
ENDROOT
BRANCH   6  21
ATOM     21  C   UNL d   1      -4.174   0.612 -16.619  0.00  0.00    -0.014 C 
ATOM     22  C   UNL d   1      -3.282   1.062 -16.670  0.00  0.00     0.010 C 
BRANCH  21  23
ATOM     23  C   UNL d   1      -4.958   0.999 -17.106  0.00  0.00     0.005 C 
BRANCH  23  24
ATOM     24  C   UNL d   1      -4.852   1.325 -18.045  0.00  0.00     0.005 C 
BRANCH  24  25
ATOM     25  C   UNL d   1      -5.658   1.586 -18.577  0.00  0.00    -0.015 C 
ATOM     26  C   UNL d   1      -6.573   1.366 -18.239  0.00  0.00     0.010 C 
BRANCH  25  27
ATOM     27  C   UNL d   1      -5.547   2.067 -19.447  0.00  0.00    -0.019 C 
ATOM     28  C   UNL d   1      -4.915   1.713 -20.136  0.00  0.00     0.010 C 
ATOM     29  C   UNL d   1      -6.069   2.901 -19.627  0.00  0.00     0.010 C 
ENDBRANCH  25  27
ENDBRANCH  24  25
ENDBRANCH  23  24
ENDBRANCH  21  23
ENDBRANCH   6  21
TORSDOF 5
ENDMDL
MODEL 4
REMARK VINA RESULT:   -11.730      3.816      7.779
REMARK INTER + INTRA:          -4.528
REMARK INTER:                 -15.027
REMARK INTRA:                  10.500
REMARK UNBOUND:                10.631
REMARK  5 active torsions:
REMARK  status: ('A' for Active; 'I' for Inactive)
REMARK    1  A    between atoms: C_6  and  C_13 
REMARK    2  A    between atoms: C_13  and  C_19 
REMARK    3  A    between atoms: C_19  and  C_24 
REMARK    4  A    between atoms: C_24  and  C_25 
REMARK    5  A    between atoms: C_25  and  C_26 
ROOT
ATOM      1  O   UNL d   1      -6.844  -2.975  -7.441  0.00  0.00    -0.293 OA
ATOM      2  C   UNL d   1      -4.971  -1.395 -13.133  0.00  0.00    -0.036 A 
ATOM      3  C   UNL d   1      -5.021  -0.697 -12.419  0.00  0.00    -0.002 A 
ATOM      4  C   UNL d   1      -5.322  -0.944 -11.498  0.00  0.00    -0.004 A 
ATOM      5  C   UNL d   1      -5.573  -1.889 -11.291  0.00  0.00     0.002 A 
ATOM      6  C   UNL d   1      -4.654  -0.956 -13.966  0.00  0.00    -0.002 A 
ATOM      7  C   UNL d   1      -5.223  -2.341 -12.926  0.00  0.00     0.010 A 
ATOM      8  C   UNL d   1      -4.734   0.167 -12.817  0.00  0.00     0.006 A 
ATOM      9  C   UNL d   1      -5.889  -2.161 -10.336  0.00  0.00    -0.016 A 
ATOM     10  C   UNL d   1      -5.524  -2.588 -12.005  0.00  0.00     0.007 A 
ATOM     11  C   UNL d   1      -4.507   0.007 -13.773  0.00  0.00     0.006 A 
ATOM     12  C   UNL d   1      -5.368  -0.205 -10.765  0.00  0.00     0.010 A 
ATOM     13  C   UNL d   1      -4.921  -2.094 -13.847  0.00  0.00     0.016 C 
ATOM     14  C   UNL d   1      -5.943  -1.439  -9.587  0.00  0.00    -0.068 A 
ATOM     15  C   UNL d   1      -5.681  -0.454  -9.803  0.00  0.00     0.035 A 
ATOM     16  C   UNL d   1      -6.157  -3.193 -10.135  0.00  0.00     0.022 A 
ATOM     17  C   UNL d   1      -5.837  -2.854 -11.055  0.00  0.00     0.020 C 
ATOM     18  C   UNL d   1      -6.486  -3.477  -9.141  0.00  0.00     0.084 A 
ATOM     19  C   UNL d   1      -6.269  -1.699  -8.585  0.00  0.00     0.053 A 
ATOM     20  C   UNL d   1      -6.542  -2.725  -8.361  0.00  0.00     0.149 A 
ENDROOT
BRANCH   6  21
ATOM     21  C   UNL d   1      -4.508  -1.407 -14.848  0.00  0.00    -0.014 C 
ATOM     22  C   UNL d   1      -5.284  -1.585 -15.452  0.00  0.00     0.010 C 
BRANCH  21  23
ATOM     23  C   UNL d   1      -3.585  -1.678 -15.124  0.00  0.00     0.005 C 
BRANCH  23  24
ATOM     24  C   UNL d   1      -3.335  -1.684 -16.092  0.00  0.00     0.005 C 
BRANCH  24  25
ATOM     25  C   UNL d   1      -2.449  -2.050 -16.377  0.00  0.00    -0.015 C 
ATOM     26  C   UNL d   1      -1.619  -1.789 -15.884  0.00  0.00     0.010 C 
BRANCH  25  27
ATOM     27  C   UNL d   1      -2.394  -2.677 -17.153  0.00  0.00    -0.019 C 
ATOM     28  C   UNL d   1      -2.349  -3.664 -16.996  0.00  0.00     0.010 C 
ATOM     29  C   UNL d   1      -2.385  -2.318 -18.087  0.00  0.00     0.010 C 
ENDBRANCH  25  27
ENDBRANCH  24  25
ENDBRANCH  23  24
ENDBRANCH  21  23
ENDBRANCH   6  21
TORSDOF 5
ENDMDL
MODEL 5
REMARK VINA RESULT:   -11.577      1.865      4.062
REMARK INTER + INTRA:          -4.330
REMARK INTER:                 -15.233
REMARK INTRA:                  10.903
REMARK UNBOUND:                10.631
REMARK  5 active torsions:
REMARK  status: ('A' for Active; 'I' for Inactive)
REMARK    1  A    between atoms: C_6  and  C_13 
REMARK    2  A    between atoms: C_13  and  C_19 
REMARK    3  A    between atoms: C_19  and  C_24 
REMARK    4  A    between atoms: C_24  and  C_25 
REMARK    5  A    between atoms: C_25  and  C_26 
ROOT
ATOM      1  O   UNL d   1      -2.928   1.008 -17.881  0.00  0.00    -0.293 OA
ATOM      2  C   UNL d   1      -5.174  -1.129 -12.515  0.00  0.00    -0.036 A 
ATOM      3  C   UNL d   1      -4.930  -1.774 -13.239  0.00  0.00    -0.002 A 
ATOM      4  C   UNL d   1      -4.567  -1.438 -14.107  0.00  0.00    -0.004 A 
ATOM      5  C   UNL d   1      -4.448  -0.455 -14.252  0.00  0.00     0.002 A 
ATOM      6  C   UNL d   1      -5.512  -1.653 -11.741  0.00  0.00    -0.002 A 
ATOM      7  C   UNL d   1      -5.055  -0.147 -12.660  0.00  0.00     0.010 A 
ATOM      8  C   UNL d   1      -5.120  -2.692 -12.906  0.00  0.00     0.006 A 
ATOM      9  C   UNL d   1      -4.071  -0.089 -15.152  0.00  0.00    -0.016 A 
ATOM     10  C   UNL d   1      -4.692   0.190 -13.528  0.00  0.00     0.007 A 
ATOM     11  C   UNL d   1      -5.478  -2.617 -11.982  0.00  0.00     0.006 A 
ATOM     12  C   UNL d   1      -4.318  -2.122 -14.852  0.00  0.00     0.010 A 
ATOM     13  C   UNL d   1      -5.418  -0.484 -11.791  0.00  0.00     0.016 C 
ATOM     14  C   UNL d   1      -3.815  -0.756 -15.911  0.00  0.00    -0.068 A 
ATOM     15  C   UNL d   1      -3.939  -1.779 -15.760  0.00  0.00     0.035 A 
ATOM     16  C   UNL d   1      -3.950   0.981 -15.286  0.00  0.00     0.022 A 
ATOM     17  C   UNL d   1      -4.317   0.550 -14.423  0.00  0.00     0.020 C 
ATOM     18  C   UNL d   1      -3.558   1.362 -16.223  0.00  0.00     0.084 A 
ATOM     19  C   UNL d   1      -3.420  -0.399 -16.856  0.00  0.00     0.053 A 
ATOM     20  C   UNL d   1      -3.291   0.668 -17.013  0.00  0.00     0.149 A 
ENDROOT
BRANCH   6  21
ATOM     21  C   UNL d   1      -5.831  -1.276 -10.871  0.00  0.00    -0.014 C 
ATOM     22  C   UNL d   1      -6.598  -0.635 -10.855  0.00  0.00     0.010 C 
BRANCH  21  23
ATOM     23  C   UNL d   1      -5.381  -1.541 -10.017  0.00  0.00     0.005 C 
BRANCH  23  24
ATOM     24  C   UNL d   1      -5.922  -1.918  -9.265  0.00  0.00     0.005 C 
BRANCH  24  25
ATOM     25  C   UNL d   1      -5.474  -2.454  -8.548  0.00  0.00    -0.015 C 
ATOM     26  C   UNL d   1      -4.635  -2.116  -8.122  0.00  0.00     0.010 C 
BRANCH  25  27
ATOM     27  C   UNL d   1      -5.866  -3.327  -8.259  0.00  0.00    -0.019 C 
ATOM     28  C   UNL d   1      -6.700  -3.342  -7.706  0.00  0.00     0.010 C 
ATOM     29  C   UNL d   1      -5.426  -4.186  -8.523  0.00  0.00     0.010 C 
ENDBRANCH  25  27
ENDBRANCH  24  25
ENDBRANCH  23  24
ENDBRANCH  21  23
ENDBRANCH   6  21
TORSDOF 5
ENDMDL
