MODEL 1
REMARK VINA RESULT:    -4.279      0.000      0.000
REMARK INTER + INTRA:          -4.279
REMARK INTER:                  -4.279
REMARK INTRA:                   0.000
REMARK UNBOUND:                 0.000
REMARK  0 active torsions:
REMARK  status: ('A' for Active; 'I' for Inactive)
ROOT
ATOM      1  O   UNL d   1      36.892  38.669  16.738  0.00  0.00    -0.265 OA
ATOM      2  O   UNL d   1      40.325  39.104  16.889  0.00  0.00    -0.246 OA
ATOM      3  N   UNL d   1      39.533  39.000  15.353  0.00  0.00    -0.286 N 
ATOM      4  N   UNL d   1      37.114  38.692  14.579  0.00  0.00    -0.338 N 
ATOM      5  N   UNL d   1      38.609  38.886  16.814  0.00  0.00    -0.269 N 
ATOM      6  N   UNL d   1      38.532  38.870  13.836  0.00  0.00    -0.223 NA
ATOM      7  C   UNL d   1      37.816  38.782  15.277  0.00  0.00     0.151 A 
ATOM      8  C   UNL d   1      38.696  38.893  14.816  0.00  0.00     0.167 A 
ATOM      9  C   UNL d   1      37.772  38.779  16.276  0.00  0.00     0.282 A 
ATOM     10  C   UNL d   1      39.489  38.997  16.352  0.00  0.00     0.332 A 
ATOM     11  C   UNL d   1      37.556  38.746  13.689  0.00  0.00     0.212 A 
ATOM     12  C   UNL d   1      40.413  39.111  14.891  0.00  0.00     0.163 C 
ATOM     13  C   UNL d   1      36.136  38.568  14.741  0.00  0.00     0.157 C 
ATOM     14  C   UNL d   1      38.565  38.883  17.813  0.00  0.00     0.164 C 
ENDROOT
TORSDOF 0
ENDMDL
MODEL 2
REMARK VINA RESULT:    -4.268     15.771     17.283
REMARK INTER + INTRA:          -4.268
REMARK INTER:                  -4.268
REMARK INTRA:                   0.000
REMARK UNBOUND:                 0.000
REMARK  0 active torsions:
REMARK  status: ('A' for Active; 'I' for Inactive)
ROOT
ATOM      1  O   UNL d   1      22.878  49.166  12.058  0.00  0.00    -0.265 OA
ATOM      2  O   UNL d   1      25.589  48.162  10.150  0.00  0.00    -0.246 OA
ATOM      3  N   UNL d   1      25.237  47.360  11.645  0.00  0.00    -0.286 N 
ATOM      4  N   UNL d   1      23.450  47.608  13.457  0.00  0.00    -0.338 N 
ATOM      5  N   UNL d   1      24.233  48.664  11.104  0.00  0.00    -0.269 N 
ATOM      6  N   UNL d   1      24.716  46.639  13.235  0.00  0.00    -0.223 NA
ATOM      7  C   UNL d   1      23.882  47.862  12.598  0.00  0.00     0.151 A 
ATOM      8  C   UNL d   1      24.668  47.260  12.461  0.00  0.00     0.167 A 
ATOM      9  C   UNL d   1      23.664  48.564  11.920  0.00  0.00     0.282 A 
ATOM     10  C   UNL d   1      25.020  48.062  10.966  0.00  0.00     0.332 A 
ATOM     11  C   UNL d   1      23.964  46.853  13.850  0.00  0.00     0.212 A 
ATOM     12  C   UNL d   1      26.024  46.758  11.507  0.00  0.00     0.163 C 
ATOM     13  C   UNL d   1      22.639  48.036  13.856  0.00  0.00     0.157 C 
ATOM     14  C   UNL d   1      24.016  49.366  10.426  0.00  0.00     0.164 C 
ENDROOT
TORSDOF 0
ENDMDL
MODEL 3
REMARK VINA RESULT:    -4.218      1.080      2.675
REMARK INTER + INTRA:          -4.218
REMARK INTER:                  -4.218
REMARK INTRA:                   0.000
REMARK UNBOUND:                 0.000
REMARK  0 active torsions:
REMARK  status: ('A' for Active; 'I' for Inactive)
ROOT
ATOM      1  O   UNL d   1      38.255  38.707  17.313  0.00  0.00    -0.265 OA
ATOM      2  O   UNL d   1      36.245  38.438  14.505  0.00  0.00    -0.246 OA
ATOM      3  N   UNL d   1      37.939  38.753  14.330  0.00  0.00    -0.286 N 
ATOM      4  N   UNL d   1      39.902  39.056  15.942  0.00  0.00    -0.338 N 
ATOM      5  N   UNL d   1      37.250  38.573  15.909  0.00  0.00    -0.269 N 
ATOM      6  N   UNL d   1      39.731  39.080  14.341  0.00  0.00    -0.223 NA
ATOM      7  C   UNL d   1      38.944  38.888  15.734  0.00  0.00     0.151 A 
ATOM      8  C   UNL d   1      38.838  38.903  14.740  0.00  0.00     0.167 A 
ATOM      9  C   UNL d   1      38.150  38.723  16.319  0.00  0.00     0.282 A 
ATOM     10  C   UNL d   1      37.144  38.588  14.915  0.00  0.00     0.332 A 
ATOM     11  C   UNL d   1      40.388  39.174  15.082  0.00  0.00     0.212 A 
ATOM     12  C   UNL d   1      37.833  38.769  13.336  0.00  0.00     0.163 C 
ATOM     13  C   UNL d   1      40.306  39.098  16.855  0.00  0.00     0.157 C 
ATOM     14  C   UNL d   1      36.456  38.407  16.494  0.00  0.00     0.164 C 
ENDROOT
TORSDOF 0
ENDMDL
MODEL 4
REMARK VINA RESULT:    -4.190     15.945     17.482
REMARK INTER + INTRA:          -4.190
REMARK INTER:                  -4.190
REMARK INTRA:                   0.000
REMARK UNBOUND:                 0.000
REMARK  0 active torsions:
REMARK  status: ('A' for Active; 'I' for Inactive)
ROOT
ATOM      1  O   UNL d   1      25.277  47.988  10.444  0.00  0.00    -0.265 OA
ATOM      2  O   UNL d   1      24.735  46.308  13.425  0.00  0.00    -0.246 OA
ATOM      3  N   UNL d   1      23.859  47.762  13.078  0.00  0.00    -0.286 N 
ATOM      4  N   UNL d   1      23.797  49.419  11.131  0.00  0.00    -0.338 N 
ATOM      5  N   UNL d   1      25.006  47.148  11.934  0.00  0.00    -0.269 N 
ATOM      6  N   UNL d   1      23.036  49.298  12.545  0.00  0.00    -0.223 NA
ATOM      7  C   UNL d   1      24.131  48.602  11.588  0.00  0.00     0.151 A 
ATOM      8  C   UNL d   1      23.658  48.527  12.466  0.00  0.00     0.167 A 
ATOM      9  C   UNL d   1      24.805  47.913  11.322  0.00  0.00     0.282 A 
ATOM     10  C   UNL d   1      24.533  47.073  12.812  0.00  0.00     0.332 A 
ATOM     11  C   UNL d   1      23.121  49.849  11.721  0.00  0.00     0.212 A 
ATOM     12  C   UNL d   1      23.387  47.687  13.956  0.00  0.00     0.163 C 
ATOM     13  C   UNL d   1      24.089  49.752  10.235  0.00  0.00     0.157 C 
ATOM     14  C   UNL d   1      25.680  46.459  11.669  0.00  0.00     0.164 C 
ENDROOT
TORSDOF 0
ENDMDL
MODEL 5
REMARK VINA RESULT:    -4.141     18.108     19.489
REMARK INTER + INTRA:          -4.141
REMARK INTER:                  -4.141
REMARK INTRA:                   0.000
REMARK UNBOUND:                 0.000
REMARK  0 active torsions:
REMARK  status: ('A' for Active; 'I' for Inactive)
ROOT
ATOM      1  O   UNL d   1      31.859  42.780  -2.679  0.00  0.00    -0.265 OA
ATOM      2  O   UNL d   1      30.810  43.031   0.613  0.00  0.00    -0.246 OA
ATOM      3  N   UNL d   1      30.491  44.321  -0.498  0.00  0.00    -0.286 N 
ATOM      4  N   UNL d   1      30.980  44.743  -2.973  0.00  0.00    -0.338 N 
ATOM      5  N   UNL d   1      31.335  42.906  -1.033  0.00  0.00    -0.269 N 
ATOM      6  N   UNL d   1      30.245  45.570  -1.803  0.00  0.00    -0.223 NA
ATOM      7  C   UNL d   1      31.015  44.195  -2.144  0.00  0.00     0.151 A 
ATOM      8  C   UNL d   1      30.559  44.709  -1.417  0.00  0.00     0.167 A 
ATOM      9  C   UNL d   1      31.403  43.294  -1.952  0.00  0.00     0.282 A 
ATOM     10  C   UNL d   1      30.879  43.419  -0.306  0.00  0.00     0.332 A 
ATOM     11  C   UNL d   1      30.505  45.591  -2.763  0.00  0.00     0.212 A 
ATOM     12  C   UNL d   1      30.034  44.834   0.228  0.00  0.00     0.163 C 
ATOM     13  C   UNL d   1      31.356  44.487  -3.863  0.00  0.00     0.157 C 
ATOM     14  C   UNL d   1      31.723  42.005  -0.841  0.00  0.00     0.164 C 
ENDROOT
TORSDOF 0
ENDMDL
