MODEL 1
REMARK VINA RESULT:    -6.497      0.000      0.000
REMARK INTER + INTRA:          -7.455
REMARK INTER:                  -7.452
REMARK INTRA:                  -0.004
REMARK UNBOUND:                -0.009
REMARK  4 active torsions:
REMARK  status: ('A' for Active; 'I' for Inactive)
REMARK    1  A    between atoms: O_1  and  C_13 
REMARK    2  A    between atoms: O_4  and  C_16 
REMARK    3  A    between atoms: O_5  and  C_18 
REMARK    4  A    between atoms: C_14  and  C_18 
ROOT
ATOM      1  O   UNL d   1      23.558  40.053  25.358  0.00  0.00    -0.286 OA
ATOM      2  O   UNL d   1      27.536  40.474  25.324  0.00  0.00    -0.287 OA
ATOM      3  C   UNL d   1      26.064  40.202  26.195  0.00  0.00     0.032 A 
ATOM      4  C   UNL d   1      25.069  40.097  26.204  0.00  0.00     0.062 A 
ATOM      5  C   UNL d   1      25.030  40.325  24.487  0.00  0.00     0.062 A 
ATOM      6  C   UNL d   1      26.025  40.430  24.479  0.00  0.00     0.032 A 
ATOM      7  C   UNL d   1      24.553  40.158  25.350  0.00  0.00     0.199 A 
ATOM      8  C   UNL d   1      26.541  40.369  25.333  0.00  0.00     0.194 A 
ATOM      9  C   UNL d   1      26.616  40.141  27.077  0.00  0.00     0.026 A 
ATOM     10  C   UNL d   1      24.558  39.923  27.095  0.00  0.00     0.081 A 
ATOM     11  C   UNL d   1      26.125  39.968  27.979  0.00  0.00    -0.031 A 
ATOM     12  C   UNL d   1      25.090  39.858  27.988  0.00  0.00     0.046 A 
ATOM     13  C   UNL d   1      24.479  40.386  23.606  0.00  0.00     0.080 A 
ATOM     14  C   UNL d   1      26.537  40.604  23.588  0.00  0.00     0.017 A 
ATOM     15  C   UNL d   1      24.970  40.559  22.704  0.00  0.00     0.037 A 
ATOM     16  C   UNL d   1      26.005  40.669  22.695  0.00  0.00     0.004 A 
ENDROOT
BRANCH  11  17
ATOM     17  C   UNL d   1      26.645  39.908  28.831  0.00  0.00     0.203 C 
BRANCH  17  18
ATOM     18  O   UNL d   1      27.165  40.698  29.156  0.00  0.00    -0.396 OA
ATOM     19  H   UNL d   1      27.370  41.121  28.752  0.00  0.00     0.209 HD
ENDBRANCH  17  18
ENDBRANCH  11  17
BRANCH  10  20
ATOM     20  O   UNL d   1      23.564  39.819  27.091  0.00  0.00    -0.360 OA
ATOM     21  H   UNL d   1      23.251  39.811  27.627  0.00  0.00     0.217 HD
ENDBRANCH  10  20
BRANCH  13  22
ATOM     22  O   UNL d   1      23.485  40.279  23.626  0.00  0.00    -0.360 OA
ATOM     23  H   UNL d   1      23.143  40.636  24.001  0.00  0.00     0.217 HD
ENDBRANCH  13  22
TORSDOF 4
ENDMDL
MODEL 2
REMARK VINA RESULT:    -6.120     13.993     15.154
REMARK INTER + INTRA:          -7.024
REMARK INTER:                  -7.026
REMARK INTRA:                   0.002
REMARK UNBOUND:                -0.009
REMARK  4 active torsions:
REMARK  status: ('A' for Active; 'I' for Inactive)
REMARK    1  A    between atoms: O_1  and  C_13 
REMARK    2  A    between atoms: O_4  and  C_16 
REMARK    3  A    between atoms: O_5  and  C_18 
REMARK    4  A    between atoms: C_14  and  C_18 
ROOT
ATOM      1  O   UNL d   1      38.016  39.610  16.348  0.00  0.00    -0.286 OA
ATOM      2  O   UNL d   1      36.045  36.524  17.957  0.00  0.00    -0.287 OA
ATOM      3  C   UNL d   1      36.247  37.670  16.674  0.00  0.00     0.032 A 
ATOM      4  C   UNL d   1      36.740  38.441  16.272  0.00  0.00     0.062 A 
ATOM      5  C   UNL d   1      37.813  38.464  17.631  0.00  0.00     0.062 A 
ATOM      6  C   UNL d   1      37.321  37.693  18.033  0.00  0.00     0.032 A 
ATOM      7  C   UNL d   1      37.523  38.839  16.750  0.00  0.00     0.199 A 
ATOM      8  C   UNL d   1      36.538  37.296  17.555  0.00  0.00     0.194 A 
ATOM      9  C   UNL d   1      35.430  37.245  16.188  0.00  0.00     0.026 A 
ATOM     10  C   UNL d   1      36.449  38.841  15.355  0.00  0.00     0.081 A 
ATOM     11  C   UNL d   1      35.122  37.630  15.270  0.00  0.00    -0.031 A 
ATOM     12  C   UNL d   1      35.635  38.433  14.851  0.00  0.00     0.046 A 
ATOM     13  C   UNL d   1      38.631  38.888  18.118  0.00  0.00     0.080 A 
ATOM     14  C   UNL d   1      37.611  37.292  18.950  0.00  0.00     0.017 A 
ATOM     15  C   UNL d   1      38.939  38.504  19.035  0.00  0.00     0.037 A 
ATOM     16  C   UNL d   1      38.426  37.701  19.454  0.00  0.00     0.004 A 
ENDROOT
BRANCH  11  17
ATOM     17  C   UNL d   1      34.338  37.229  14.795  0.00  0.00     0.203 C 
BRANCH  17  18
ATOM     18  O   UNL d   1      33.460  37.708  14.789  0.00  0.00    -0.396 OA
ATOM     19  H   UNL d   1      33.441  38.323  14.859  0.00  0.00     0.209 HD
ENDBRANCH  17  18
ENDBRANCH  11  17
BRANCH  10  20
ATOM     20  O   UNL d   1      36.950  39.613  14.962  0.00  0.00    -0.360 OA
ATOM     21  H   UNL d   1      36.882  39.752  14.362  0.00  0.00     0.217 HD
ENDBRANCH  10  20
BRANCH  13  22
ATOM     22  O   UNL d   1      39.116  39.660  17.706  0.00  0.00    -0.360 OA
ATOM     23  H   UNL d   1      39.492  40.010  18.054  0.00  0.00     0.217 HD
ENDBRANCH  13  22
TORSDOF 4
ENDMDL
MODEL 3
REMARK VINA RESULT:    -5.975     26.112     28.236
REMARK INTER + INTRA:          -6.857
REMARK INTER:                  -6.886
REMARK INTRA:                   0.029
REMARK UNBOUND:                -0.009
REMARK  4 active torsions:
REMARK  status: ('A' for Active; 'I' for Inactive)
REMARK    1  A    between atoms: O_1  and  C_13 
REMARK    2  A    between atoms: O_4  and  C_16 
REMARK    3  A    between atoms: O_5  and  C_18 
REMARK    4  A    between atoms: C_14  and  C_18 
ROOT
ATOM      1  O   UNL d   1      31.192  44.808  -2.827  0.00  0.00    -0.286 OA
ATOM      2  O   UNL d   1      31.005  42.248   0.242  0.00  0.00    -0.287 OA
ATOM      3  C   UNL d   1      31.504  42.617  -1.376  0.00  0.00     0.032 A 
ATOM      4  C   UNL d   1      31.550  43.257  -2.143  0.00  0.00     0.062 A 
ATOM      5  C   UNL d   1      30.694  44.438  -1.209  0.00  0.00     0.062 A 
ATOM      6  C   UNL d   1      30.647  43.799  -0.442  0.00  0.00     0.032 A 
ATOM      7  C   UNL d   1      31.145  44.168  -2.060  0.00  0.00     0.199 A 
ATOM      8  C   UNL d   1      31.052  42.888  -0.525  0.00  0.00     0.194 A 
ATOM      9  C   UNL d   1      31.921  41.665  -1.447  0.00  0.00     0.026 A 
ATOM     10  C   UNL d   1      32.018  42.989  -3.034  0.00  0.00     0.081 A 
ATOM     11  C   UNL d   1      32.393  41.376  -2.329  0.00  0.00    -0.031 A 
ATOM     12  C   UNL d   1      32.442  42.043  -3.128  0.00  0.00     0.046 A 
ATOM     13  C   UNL d   1      30.276  45.390  -1.137  0.00  0.00     0.080 A 
ATOM     14  C   UNL d   1      30.180  44.066   0.450  0.00  0.00     0.017 A 
ATOM     15  C   UNL d   1      29.804  45.679  -0.255  0.00  0.00     0.037 A 
ATOM     16  C   UNL d   1      29.755  45.013   0.543  0.00  0.00     0.004 A 
ENDROOT
BRANCH  11  17
ATOM     17  C   UNL d   1      32.797  40.465  -2.408  0.00  0.00     0.203 C 
BRANCH  17  18
ATOM     18  O   UNL d   1      33.183  40.018  -1.601  0.00  0.00    -0.396 OA
ATOM     19  H   UNL d   1      32.816  39.868  -1.124  0.00  0.00     0.209 HD
ENDBRANCH  17  18
ENDBRANCH  11  17
BRANCH  10  20
ATOM     20  O   UNL d   1      32.059  43.637  -3.794  0.00  0.00    -0.360 OA
ATOM     21  H   UNL d   1      32.599  43.748  -4.078  0.00  0.00     0.217 HD
ENDBRANCH  10  20
BRANCH  13  22
ATOM     22  O   UNL d   1      30.329  46.022  -1.911  0.00  0.00    -0.360 OA
ATOM     23  H   UNL d   1      30.197  45.822  -2.483  0.00  0.00     0.217 HD
ENDBRANCH  13  22
TORSDOF 4
ENDMDL
MODEL 4
REMARK VINA RESULT:    -5.800      1.693      3.442
REMARK INTER + INTRA:          -6.657
REMARK INTER:                  -6.669
REMARK INTRA:                   0.012
REMARK UNBOUND:                -0.009
REMARK  4 active torsions:
REMARK  status: ('A' for Active; 'I' for Inactive)
REMARK    1  A    between atoms: O_1  and  C_13 
REMARK    2  A    between atoms: O_4  and  C_16 
REMARK    3  A    between atoms: O_5  and  C_18 
REMARK    4  A    between atoms: C_14  and  C_18 
ROOT
ATOM      1  O   UNL d   1      24.132  40.317  26.297  0.00  0.00    -0.286 OA
ATOM      2  O   UNL d   1      24.305  40.586  22.310  0.00  0.00    -0.287 OA
ATOM      3  C   UNL d   1      25.106  40.477  23.842  0.00  0.00     0.032 A 
ATOM      4  C   UNL d   1      25.062  40.409  24.839  0.00  0.00     0.062 A 
ATOM      5  C   UNL d   1      23.332  40.426  24.765  0.00  0.00     0.062 A 
ATOM      6  C   UNL d   1      23.375  40.493  23.768  0.00  0.00     0.032 A 
ATOM      7  C   UNL d   1      24.176  40.384  25.300  0.00  0.00     0.199 A 
ATOM      8  C   UNL d   1      24.262  40.519  23.307  0.00  0.00     0.194 A 
ATOM      9  C   UNL d   1      26.022  40.504  23.347  0.00  0.00     0.026 A 
ATOM     10  C   UNL d   1      25.932  40.365  25.410  0.00  0.00     0.081 A 
ATOM     11  C   UNL d   1      26.905  40.461  23.898  0.00  0.00    -0.031 A 
ATOM     12  C   UNL d   1      26.860  40.391  24.936  0.00  0.00     0.046 A 
ATOM     13  C   UNL d   1      22.416  40.399  25.259  0.00  0.00     0.080 A 
ATOM     14  C   UNL d   1      22.505  40.538  23.197  0.00  0.00     0.017 A 
ATOM     15  C   UNL d   1      21.533  40.442  24.708  0.00  0.00     0.037 A 
ATOM     16  C   UNL d   1      21.578  40.512  23.670  0.00  0.00     0.004 A 
ENDROOT
BRANCH  11  17
ATOM     17  C   UNL d   1      27.790  40.487  23.433  0.00  0.00     0.203 C 
BRANCH  17  18
ATOM     18  O   UNL d   1      28.396  41.273  23.556  0.00  0.00    -0.396 OA
ATOM     19  H   UNL d   1      28.768  41.302  24.052  0.00  0.00     0.209 HD
ENDBRANCH  17  18
ENDBRANCH  11  17
BRANCH  10  20
ATOM     20  O   UNL d   1      25.877  40.298  26.406  0.00  0.00    -0.360 OA
ATOM     21  H   UNL d   1      25.802  39.744  26.675  0.00  0.00     0.217 HD
ENDBRANCH  10  20
BRANCH  13  22
ATOM     22  O   UNL d   1      22.385  40.331  26.256  0.00  0.00    -0.360 OA
ATOM     23  H   UNL d   1      22.066  39.872  26.526  0.00  0.00     0.217 HD
ENDBRANCH  13  22
TORSDOF 4
ENDMDL
MODEL 5
REMARK VINA RESULT:    -5.800     14.005     14.735
REMARK INTER + INTRA:          -6.656
REMARK INTER:                  -6.658
REMARK INTRA:                   0.002
REMARK UNBOUND:                -0.009
REMARK  4 active torsions:
REMARK  status: ('A' for Active; 'I' for Inactive)
REMARK    1  A    between atoms: O_1  and  C_13 
REMARK    2  A    between atoms: O_4  and  C_16 
REMARK    3  A    between atoms: O_5  and  C_18 
REMARK    4  A    between atoms: C_14  and  C_18 
ROOT
ATOM      1  O   UNL d   1      38.087  39.592  16.411  0.00  0.00    -0.286 OA
ATOM      2  O   UNL d   1      36.061  36.506  17.949  0.00  0.00    -0.287 OA
ATOM      3  C   UNL d   1      37.336  37.671  18.068  0.00  0.00     0.032 A 
ATOM      4  C   UNL d   1      37.843  38.443  17.683  0.00  0.00     0.062 A 
ATOM      5  C   UNL d   1      36.811  38.427  16.292  0.00  0.00     0.062 A 
ATOM      6  C   UNL d   1      36.304  37.655  16.677  0.00  0.00     0.032 A 
ATOM      7  C   UNL d   1      37.580  38.821  16.795  0.00  0.00     0.199 A 
ATOM      8  C   UNL d   1      36.567  37.277  17.564  0.00  0.00     0.194 A 
ATOM      9  C   UNL d   1      37.598  37.266  18.991  0.00  0.00     0.026 A 
ATOM     10  C   UNL d   1      38.646  38.863  18.195  0.00  0.00     0.081 A 
ATOM     11  C   UNL d   1      38.398  37.671  19.521  0.00  0.00    -0.031 A 
ATOM     12  C   UNL d   1      38.926  38.475  19.121  0.00  0.00     0.046 A 
ATOM     13  C   UNL d   1      36.549  38.831  15.369  0.00  0.00     0.080 A 
ATOM     14  C   UNL d   1      35.501  37.234  16.165  0.00  0.00     0.017 A 
ATOM     15  C   UNL d   1      35.748  38.426  14.839  0.00  0.00     0.037 A 
ATOM     16  C   UNL d   1      35.221  37.623  15.239  0.00  0.00     0.004 A 
ENDROOT
BRANCH  11  17
ATOM     17  C   UNL d   1      38.658  37.290  20.409  0.00  0.00     0.203 C 
BRANCH  17  18
ATOM     18  O   UNL d   1      37.982  37.231  21.144  0.00  0.00    -0.396 OA
ATOM     19  H   UNL d   1      37.474  36.883  21.071  0.00  0.00     0.209 HD
ENDBRANCH  17  18
ENDBRANCH  11  17
BRANCH  10  20
ATOM     20  O   UNL d   1      39.145  39.635  17.801  0.00  0.00    -0.360 OA
ATOM     21  H   UNL d   1      39.370  40.079  18.171  0.00  0.00     0.217 HD
ENDBRANCH  10  20
BRANCH  13  22
ATOM     22  O   UNL d   1      37.062  39.603  14.994  0.00  0.00    -0.360 OA
ATOM     23  H   UNL d   1      37.286  40.040  15.374  0.00  0.00     0.217 HD
ENDBRANCH  13  22
TORSDOF 4
ENDMDL
