MODEL 1
REMARK VINA RESULT:    -6.902      0.000      0.000
REMARK INTER + INTRA:          -6.710
REMARK INTER:                  -7.721
REMARK INTRA:                   1.012
REMARK UNBOUND:                 0.999
REMARK  3 active torsions:
REMARK  status: ('A' for Active; 'I' for Inactive)
REMARK    1  A    between atoms: O_2  and  C_10 
REMARK    2  A    between atoms: O_4  and  C_13 
REMARK    3  A    between atoms: C_7  and  C_9 
ROOT
ATOM      1  O   UNL d   1      25.234 -10.105  16.392  0.00  0.00    -0.309 OA
ATOM      2  O   UNL d   1      24.254  -7.757  17.982  0.00  0.00    -0.287 OA
ATOM      3  C   UNL d   1      23.929  -9.121  16.965  0.00  0.00     0.081 A 
ATOM      4  C   UNL d   1      24.255  -9.904  16.435  0.00  0.00     0.095 A 
ATOM      5  C   UNL d   1      25.886  -9.523  16.878  0.00  0.00     0.090 A 
ATOM      6  C   UNL d   1      24.581  -8.540  17.452  0.00  0.00     0.190 A 
ATOM      7  C   UNL d   1      22.912  -8.900  17.020  0.00  0.00     0.085 A 
ATOM      8  C   UNL d   1      25.559  -8.741  17.408  0.00  0.00     0.094 A 
ATOM      9  C   UNL d   1      23.588 -10.519  15.923  0.00  0.00     0.075 A 
ATOM     10  C   UNL d   1      22.567 -10.316  15.964  0.00  0.00     0.071 A 
ATOM     11  C   UNL d   1      22.227  -9.501  16.516  0.00  0.00     0.074 A 
ENDROOT
BRANCH   5  12
ATOM     12  C   UNL d   1      26.864  -9.724  16.834  0.00  0.00    -0.002 A 
ATOM     13  C   UNL d   1      27.396  -9.451  16.033  0.00  0.00     0.014 A 
ATOM     14  C   UNL d   1      28.374  -9.652  15.989  0.00  0.00     0.001 A 
ATOM     15  C   UNL d   1      28.822 -10.126  16.747  0.00  0.00     0.000 A 
ATOM     16  C   UNL d   1      28.290 -10.400  17.549  0.00  0.00     0.001 A 
ATOM     17  C   UNL d   1      27.312 -10.199  17.592  0.00  0.00     0.014 A 
ENDBRANCH   5  12
BRANCH   7  18
ATOM     18  O   UNL d   1      22.597  -8.115  17.553  0.00  0.00    -0.360 OA
ATOM     19  H   UNL d   1      22.987  -7.651  17.681  0.00  0.00     0.217 HD
ENDBRANCH   7  18
BRANCH  10  20
ATOM     20  O   UNL d   1      21.919 -10.900  15.476  0.00  0.00    -0.361 OA
ATOM     21  H   UNL d   1      21.347 -10.983  15.701  0.00  0.00     0.217 HD
ENDBRANCH  10  20
TORSDOF 3
ENDMDL
MODEL 2
REMARK VINA RESULT:    -6.220      0.925      2.222
REMARK INTER + INTRA:          -5.948
REMARK INTER:                  -6.948
REMARK INTRA:                   1.001
REMARK UNBOUND:                 0.999
REMARK  3 active torsions:
REMARK  status: ('A' for Active; 'I' for Inactive)
REMARK    1  A    between atoms: O_2  and  C_10 
REMARK    2  A    between atoms: O_4  and  C_13 
REMARK    3  A    between atoms: C_7  and  C_9 
ROOT
ATOM      1  O   UNL d   1      24.991  -8.756  17.112  0.00  0.00    -0.309 OA
ATOM      2  O   UNL d   1      23.185 -10.789  15.845  0.00  0.00    -0.287 OA
ATOM      3  C   UNL d   1      23.397  -9.305  16.714  0.00  0.00     0.081 A 
ATOM      4  C   UNL d   1      23.999  -8.628  17.136  0.00  0.00     0.095 A 
ATOM      5  C   UNL d   1      25.380  -9.562  16.666  0.00  0.00     0.090 A 
ATOM      6  C   UNL d   1      23.787 -10.111  16.268  0.00  0.00     0.190 A 
ATOM      7  C   UNL d   1      22.363  -9.185  16.730  0.00  0.00     0.085 A 
ATOM      8  C   UNL d   1      24.778 -10.239  16.244  0.00  0.00     0.094 A 
ATOM      9  C   UNL d   1      23.609  -7.783  17.604  0.00  0.00     0.075 A 
ATOM     10  C   UNL d   1      22.577  -7.643  17.632  0.00  0.00     0.071 A 
ATOM     11  C   UNL d   1      21.950  -8.348  17.193  0.00  0.00     0.074 A 
ENDROOT
BRANCH   5  12
ATOM     12  C   UNL d   1      26.372  -9.690  16.643  0.00  0.00    -0.002 A 
ATOM     13  C   UNL d   1      26.838 -10.124  17.414  0.00  0.00     0.014 A 
ATOM     14  C   UNL d   1      27.830 -10.252  17.390  0.00  0.00     0.001 A 
ATOM     15  C   UNL d   1      28.355  -9.946  16.596  0.00  0.00     0.000 A 
ATOM     16  C   UNL d   1      27.888  -9.512  15.825  0.00  0.00     0.001 A 
ATOM     17  C   UNL d   1      26.897  -9.384  15.849  0.00  0.00     0.014 A 
ENDBRANCH   5  12
BRANCH   7  18
ATOM     18  O   UNL d   1      21.771  -9.869  16.305  0.00  0.00    -0.360 OA
ATOM     19  H   UNL d   1      21.840 -10.469  16.445  0.00  0.00     0.217 HD
ENDBRANCH   7  18
BRANCH  10  20
ATOM     20  O   UNL d   1      22.191  -6.835  18.079  0.00  0.00    -0.361 OA
ATOM     21  H   UNL d   1      22.313  -6.724  18.677  0.00  0.00     0.217 HD
ENDBRANCH  10  20
TORSDOF 3
ENDMDL
MODEL 3
REMARK VINA RESULT:    -6.167      2.198      4.809
REMARK INTER + INTRA:          -5.889
REMARK INTER:                  -7.042
REMARK INTRA:                   1.153
REMARK UNBOUND:                 0.999
REMARK  3 active torsions:
REMARK  status: ('A' for Active; 'I' for Inactive)
REMARK    1  A    between atoms: O_2  and  C_10 
REMARK    2  A    between atoms: O_4  and  C_13 
REMARK    3  A    between atoms: C_7  and  C_9 
ROOT
ATOM      1  O   UNL d   1      22.155  -8.194  16.792  0.00  0.00    -0.309 OA
ATOM      2  O   UNL d   1      25.104  -7.850  17.225  0.00  0.00    -0.287 OA
ATOM      3  C   UNL d   1      23.766  -8.826  16.717  0.00  0.00     0.081 A 
ATOM      4  C   UNL d   1      22.783  -8.941  16.573  0.00  0.00     0.095 A 
ATOM      5  C   UNL d   1      22.510  -7.333  17.155  0.00  0.00     0.090 A 
ATOM      6  C   UNL d   1      24.121  -7.965  17.080  0.00  0.00     0.190 A 
ATOM      7  C   UNL d   1      24.431  -9.595  16.494  0.00  0.00     0.085 A 
ATOM      8  C   UNL d   1      23.493  -7.218  17.299  0.00  0.00     0.094 A 
ATOM      9  C   UNL d   1      22.398  -9.832  16.195  0.00  0.00     0.075 A 
ATOM     10  C   UNL d   1      23.046 -10.615  15.965  0.00  0.00     0.071 A 
ATOM     11  C   UNL d   1      24.069 -10.495  16.115  0.00  0.00     0.074 A 
ENDROOT
BRANCH   5  12
ATOM     12  C   UNL d   1      21.882  -6.586  17.374  0.00  0.00    -0.002 A 
ATOM     13  C   UNL d   1      21.221  -6.272  16.693  0.00  0.00     0.014 A 
ATOM     14  C   UNL d   1      20.593  -5.526  16.912  0.00  0.00     0.001 A 
ATOM     15  C   UNL d   1      20.626  -5.092  17.812  0.00  0.00     0.000 A 
ATOM     16  C   UNL d   1      21.288  -5.405  18.494  0.00  0.00     0.001 A 
ATOM     17  C   UNL d   1      21.916  -6.152  18.275  0.00  0.00     0.014 A 
ENDBRANCH   5  12
BRANCH   7  18
ATOM     18  O   UNL d   1      25.412  -9.470  16.642  0.00  0.00    -0.360 OA
ATOM     19  H   UNL d   1      25.786  -9.963  16.673  0.00  0.00     0.217 HD
ENDBRANCH   7  18
BRANCH  10  20
ATOM     20  O   UNL d   1      22.686 -11.475  15.602  0.00  0.00    -0.361 OA
ATOM     21  H   UNL d   1      22.074 -11.558  15.552  0.00  0.00     0.217 HD
ENDBRANCH  10  20
TORSDOF 3
ENDMDL
MODEL 4
REMARK VINA RESULT:    -6.022      2.040      4.858
REMARK INTER + INTRA:          -5.728
REMARK INTER:                  -6.793
REMARK INTRA:                   1.066
REMARK UNBOUND:                 0.999
REMARK  3 active torsions:
REMARK  status: ('A' for Active; 'I' for Inactive)
REMARK    1  A    between atoms: O_2  and  C_10 
REMARK    2  A    between atoms: O_4  and  C_13 
REMARK    3  A    between atoms: C_7  and  C_9 
ROOT
ATOM      1  O   UNL d   1      23.455  -7.863  17.033  0.00  0.00    -0.309 OA
ATOM      2  O   UNL d   1      21.705 -10.260  16.594  0.00  0.00    -0.287 OA
ATOM      3  C   UNL d   1      23.261  -9.503  16.510  0.00  0.00     0.081 A 
ATOM      4  C   UNL d   1      23.844  -8.704  16.657  0.00  0.00     0.095 A 
ATOM      5  C   UNL d   1      22.483  -7.821  17.263  0.00  0.00     0.090 A 
ATOM      6  C   UNL d   1      22.289  -9.461  16.740  0.00  0.00     0.190 A 
ATOM      7  C   UNL d   1      23.652 -10.385  16.119  0.00  0.00     0.085 A 
ATOM      8  C   UNL d   1      21.899  -8.620  17.116  0.00  0.00     0.094 A 
ATOM      9  C   UNL d   1      24.859  -8.732  16.422  0.00  0.00     0.075 A 
ATOM     10  C   UNL d   1      25.271  -9.604  16.030  0.00  0.00     0.071 A 
ATOM     11  C   UNL d   1      24.664 -10.436  15.877  0.00  0.00     0.074 A 
ENDROOT
BRANCH   5  12
ATOM     12  C   UNL d   1      22.093  -6.981  17.639  0.00  0.00    -0.002 A 
ATOM     13  C   UNL d   1      21.424  -6.459  17.111  0.00  0.00     0.014 A 
ATOM     14  C   UNL d   1      21.034  -5.618  17.487  0.00  0.00     0.001 A 
ATOM     15  C   UNL d   1      21.315  -5.299  18.392  0.00  0.00     0.000 A 
ATOM     16  C   UNL d   1      21.985  -5.820  18.921  0.00  0.00     0.001 A 
ATOM     17  C   UNL d   1      22.374  -6.661  18.544  0.00  0.00     0.014 A 
ENDBRANCH   5  12
BRANCH   7  18
ATOM     18  O   UNL d   1      23.060 -11.178  15.977  0.00  0.00    -0.360 OA
ATOM     19  H   UNL d   1      23.096 -11.664  16.359  0.00  0.00     0.217 HD
ENDBRANCH   7  18
BRANCH  10  20
ATOM     20  O   UNL d   1      26.244  -9.642  15.801  0.00  0.00    -0.361 OA
ATOM     21  H   UNL d   1      26.443  -9.419  15.258  0.00  0.00     0.217 HD
ENDBRANCH  10  20
TORSDOF 3
ENDMDL
MODEL 5
REMARK VINA RESULT:    -6.017      2.854      4.576
REMARK INTER + INTRA:          -5.722
REMARK INTER:                  -6.723
REMARK INTRA:                   1.001
REMARK UNBOUND:                 0.999
REMARK  3 active torsions:
REMARK  status: ('A' for Active; 'I' for Inactive)
REMARK    1  A    between atoms: O_2  and  C_10 
REMARK    2  A    between atoms: O_4  and  C_13 
REMARK    3  A    between atoms: C_7  and  C_9 
ROOT
ATOM      1  O   UNL d   1      21.947  -7.487  16.065  0.00  0.00    -0.309 OA
ATOM      2  O   UNL d   1      21.960  -6.693  18.958  0.00  0.00    -0.287 OA
ATOM      3  C   UNL d   1      21.589  -6.332  17.305  0.00  0.00     0.081 A 
ATOM      4  C   UNL d   1      21.584  -6.596  16.341  0.00  0.00     0.095 A 
ATOM      5  C   UNL d   1      22.313  -8.112  16.754  0.00  0.00     0.090 A 
ATOM      6  C   UNL d   1      21.955  -6.957  17.994  0.00  0.00     0.190 A 
ATOM      7  C   UNL d   1      21.215  -5.408  17.607  0.00  0.00     0.085 A 
ATOM      8  C   UNL d   1      22.317  -7.848  17.718  0.00  0.00     0.094 A 
ATOM      9  C   UNL d   1      21.206  -5.955  15.612  0.00  0.00     0.075 A 
ATOM     10  C   UNL d   1      20.827  -5.026  15.891  0.00  0.00     0.071 A 
ATOM     11  C   UNL d   1      20.832  -4.751  16.895  0.00  0.00     0.074 A 
ENDROOT
BRANCH   5  12
ATOM     12  C   UNL d   1      22.675  -9.003  16.478  0.00  0.00    -0.002 A 
ATOM     13  C   UNL d   1      22.085  -9.810  16.496  0.00  0.00     0.014 A 
ATOM     14  C   UNL d   1      22.447 -10.700  16.221  0.00  0.00     0.001 A 
ATOM     15  C   UNL d   1      23.399 -10.784  15.926  0.00  0.00     0.000 A 
ATOM     16  C   UNL d   1      23.989  -9.977  15.908  0.00  0.00     0.001 A 
ATOM     17  C   UNL d   1      23.627  -9.086  16.183  0.00  0.00     0.014 A 
ENDBRANCH   5  12
BRANCH   7  18
ATOM     18  O   UNL d   1      21.225  -5.153  18.574  0.00  0.00    -0.360 OA
ATOM     19  H   UNL d   1      21.724  -4.878  18.817  0.00  0.00     0.217 HD
ENDBRANCH   7  18
BRANCH  10  20
ATOM     20  O   UNL d   1      20.462  -4.403  15.199  0.00  0.00    -0.361 OA
ATOM     21  H   UNL d   1      20.616  -4.478  14.604  0.00  0.00     0.217 HD
ENDBRANCH  10  20
TORSDOF 3
ENDMDL
