MODEL 1
REMARK VINA RESULT:   -13.951      0.000      0.000
REMARK INTER + INTRA:         -15.888
REMARK INTER:                 -17.210
REMARK INTRA:                   1.323
REMARK UNBOUND:                 1.326
REMARK  6 active torsions:
REMARK  status: ('A' for Active; 'I' for Inactive)
REMARK    1  A    between atoms: C_22  and  O_1 
REMARK    2  A    between atoms: C_24  and  O_2 
REMARK    3  A    between atoms: O_3  and  C_30 
REMARK    4  A    between atoms: O_4  and  C_33 
REMARK    5  A    between atoms: C_14  and  C_30 
REMARK    6  A    between atoms: C_19  and  C_33 
ROOT
ATOM      1  C   UNL d   1       9.793  26.897 -29.578  0.00  0.00    -0.028 A 
ATOM      2  C   UNL d   1      10.302  26.391 -30.274  0.00  0.00     0.007 A 
ATOM      3  C   UNL d   1      10.177  26.602 -31.287  0.00  0.00    -0.033 A 
ATOM      4  C   UNL d   1       9.923  26.684 -28.610  0.00  0.00    -0.013 A 
ATOM      5  C   UNL d   1       9.512  27.348 -31.578  0.00  0.00     0.007 A 
ATOM      6  C   UNL d   1       9.123  27.647 -29.846  0.00  0.00     0.011 A 
ATOM      7  C   UNL d   1      10.564  25.966 -28.338  0.00  0.00    -0.069 A 
ATOM      8  C   UNL d   1       8.981  27.875 -30.853  0.00  0.00     0.007 A 
ATOM      9  C   UNL d   1       9.365  27.585 -32.627  0.00  0.00     0.010 A 
ATOM     10  C   UNL d   1      10.711  25.733 -27.333  0.00  0.00     0.038 A 
ATOM     11  C   UNL d   1      10.943  25.673 -30.002  0.00  0.00     0.033 A 
ATOM     12  C   UNL d   1      10.741  26.040 -32.024  0.00  0.00     0.044 A 
ATOM     13  C   UNL d   1       9.385  27.220 -27.896  0.00  0.00     0.016 A 
ATOM     14  C   UNL d   1      10.183  26.255 -26.602  0.00  0.00     0.053 A 
ATOM     15  C   UNL d   1       9.162  27.556 -29.169  0.00  0.00     0.016 C 
ATOM     16  C   UNL d   1       9.516  27.004 -26.886  0.00  0.00     0.022 A 
ATOM     17  C   UNL d   1       9.917  27.037 -33.382  0.00  0.00     0.157 A 
ATOM     18  C   UNL d   1      11.073  25.460 -29.034  0.00  0.00    -0.022 A 
ATOM     19  C   UNL d   1      10.610  26.259 -33.079  0.00  0.00     0.148 A 
ATOM     20  C   UNL d   1      10.815  25.885 -31.007  0.00  0.00     0.016 C 
ATOM     21  C   UNL d   1       9.247  27.417 -28.537  0.00  0.00     0.021 C 
ATOM     22  C   UNL d   1      11.410  24.950 -27.062  0.00  0.00    -0.005 A 
ATOM     23  C   UNL d   1      10.320  26.031 -25.549  0.00  0.00     0.021 A 
ATOM     24  C   UNL d   1      11.563  24.707 -26.016  0.00  0.00    -0.014 A 
ATOM     25  C   UNL d   1       8.701  28.290 -32.378  0.00  0.00     0.020 C 
ATOM     26  C   UNL d   1      11.014  25.251 -25.254  0.00  0.00     0.006 A 
ATOM     27  C   UNL d   1      11.912  24.454 -27.772  0.00  0.00     0.011 C 
ATOM     28  C   UNL d   1      12.206  23.987 -25.755  0.00  0.00     0.010 C 
ENDROOT
BRANCH   9  29
ATOM     29  C   UNL d   1       8.917  28.124 -33.340  0.00  0.00     0.176 C 
BRANCH  29  30
ATOM     30  O   UNL d   1       8.017  28.526 -33.173  0.00  0.00    -0.400 OA
ATOM     31  H   UNL d   1       7.623  28.611 -33.645  0.00  0.00     0.209 HD
ENDBRANCH  29  30
ENDBRANCH   9  29
BRANCH  17  32
ATOM     32  O   UNL d   1       9.789  27.246 -34.351  0.00  0.00    -0.392 OA
ATOM     33  H   UNL d   1       9.229  27.406 -34.563  0.00  0.00     0.210 HD
ENDBRANCH  17  32
BRANCH  19  34
ATOM     34  O   UNL d   1      11.125  25.747 -33.767  0.00  0.00    -0.393 OA
ATOM     35  H   UNL d   1      11.396  25.211 -33.615  0.00  0.00     0.210 HD
ENDBRANCH  19  34
BRANCH  14  36
ATOM     36  C   UNL d   1       9.677  26.756 -25.900  0.00  0.00     0.149 C 
ATOM     37  O   UNL d   1      10.027  27.630 -25.561  0.00  0.00    -0.649 OA
BRANCH  36  38
ATOM     38  O   UNL d   1       8.823  26.385 -25.538  0.00  0.00    -0.776 OA
ATOM     39  H   UNL d   1       8.615  26.570 -24.984  0.00  0.00     0.167 HD
ENDBRANCH  36  38
ENDBRANCH  14  36
TORSDOF 6
ENDMDL
MODEL 2
REMARK VINA RESULT:   -13.751     54.473     55.048
REMARK INTER + INTRA:         -15.640
REMARK INTER:                 -16.957
REMARK INTRA:                   1.316
REMARK UNBOUND:                 1.326
REMARK  6 active torsions:
REMARK  status: ('A' for Active; 'I' for Inactive)
REMARK    1  A    between atoms: C_22  and  O_1 
REMARK    2  A    between atoms: C_24  and  O_2 
REMARK    3  A    between atoms: O_3  and  C_30 
REMARK    4  A    between atoms: O_4  and  C_33 
REMARK    5  A    between atoms: C_14  and  C_30 
REMARK    6  A    between atoms: C_19  and  C_33 
ROOT
ATOM      1  C   UNL d   1     -33.504  -5.692 -40.397  0.00  0.00    -0.028 A 
ATOM      2  C   UNL d   1     -32.934  -5.811 -41.210  0.00  0.00     0.007 A 
ATOM      3  C   UNL d   1     -33.306  -5.600 -42.160  0.00  0.00    -0.033 A 
ATOM      4  C   UNL d   1     -33.133  -5.899 -39.492  0.00  0.00    -0.013 A 
ATOM      5  C   UNL d   1     -34.284  -5.259 -42.264  0.00  0.00     0.007 A 
ATOM      6  C   UNL d   1     -34.484  -5.352 -40.477  0.00  0.00     0.011 A 
ATOM      7  C   UNL d   1     -32.192  -6.226 -39.400  0.00  0.00    -0.069 A 
ATOM      8  C   UNL d   1     -34.878  -5.134 -41.417  0.00  0.00     0.007 A 
ATOM      9  C   UNL d   1     -34.694  -5.031 -43.243  0.00  0.00     0.010 A 
ATOM     10  C   UNL d   1     -31.792  -6.446 -38.464  0.00  0.00     0.038 A 
ATOM     11  C   UNL d   1     -31.993  -6.139 -41.118  0.00  0.00     0.033 A 
ATOM     12  C   UNL d   1     -32.669  -5.737 -43.028  0.00  0.00     0.044 A 
ATOM     13  C   UNL d   1     -33.739  -5.769 -38.655  0.00  0.00     0.016 A 
ATOM     14  C   UNL d   1     -32.379  -6.324 -37.612  0.00  0.00     0.053 A 
ATOM     15  C   UNL d   1     -34.298  -5.474 -39.830  0.00  0.00     0.016 C 
ATOM     16  C   UNL d   1     -33.359  -5.983 -37.708  0.00  0.00     0.022 A 
ATOM     17  C   UNL d   1     -34.076  -5.161 -44.125  0.00  0.00     0.157 A 
ATOM     18  C   UNL d   1     -31.623  -6.346 -40.213  0.00  0.00    -0.022 A 
ATOM     19  C   UNL d   1     -33.057  -5.517 -44.017  0.00  0.00     0.148 A 
ATOM     20  C   UNL d   1     -32.367  -5.927 -42.060  0.00  0.00     0.016 C 
ATOM     21  C   UNL d   1     -34.056  -5.609 -39.239  0.00  0.00     0.021 C 
ATOM     22  C   UNL d   1     -30.769  -6.800 -38.388  0.00  0.00    -0.005 A 
ATOM     23  C   UNL d   1     -31.985  -6.547 -36.626  0.00  0.00     0.021 A 
ATOM     24  C   UNL d   1     -30.353  -7.029 -37.413  0.00  0.00    -0.014 A 
ATOM     25  C   UNL d   1     -35.564  -4.774 -42.823  0.00  0.00     0.020 C 
ATOM     26  C   UNL d   1     -30.964  -6.902 -36.526  0.00  0.00     0.006 A 
ATOM     27  C   UNL d   1     -30.214  -6.914 -39.213  0.00  0.00     0.011 C 
ATOM     28  C   UNL d   1     -29.411  -7.355 -37.333  0.00  0.00     0.010 C 
ENDROOT
BRANCH   9  29
ATOM     29  C   UNL d   1     -35.453  -4.722 -43.815  0.00  0.00     0.176 C 
BRANCH  29  30
ATOM     30  O   UNL d   1     -36.385  -4.718 -43.452  0.00  0.00    -0.400 OA
ATOM     31  H   UNL d   1     -36.772  -5.184 -43.585  0.00  0.00     0.209 HD
ENDBRANCH  29  30
ENDBRANCH   9  29
BRANCH  17  32
ATOM     32  O   UNL d   1     -34.443  -4.955 -45.032  0.00  0.00    -0.392 OA
ATOM     33  H   UNL d   1     -34.925  -5.277 -45.252  0.00  0.00     0.210 HD
ENDBRANCH  17  32
BRANCH  19  34
ATOM     34  O   UNL d   1     -32.479  -5.640 -44.823  0.00  0.00    -0.393 OA
ATOM     35  H   UNL d   1     -32.441  -5.191 -45.249  0.00  0.00     0.210 HD
ENDBRANCH  19  34
BRANCH  14  36
ATOM     36  C   UNL d   1     -32.943  -6.207 -36.795  0.00  0.00     0.149 C 
ATOM     37  O   UNL d   1     -32.987  -5.316 -36.343  0.00  0.00    -0.649 OA
BRANCH  36  38
ATOM     38  O   UNL d   1     -33.461  -6.979 -36.429  0.00  0.00    -0.776 OA
ATOM     39  H   UNL d   1     -34.031  -7.099 -36.642  0.00  0.00     0.167 HD
ENDBRANCH  36  38
ENDBRANCH  14  36
TORSDOF 6
ENDMDL
MODEL 3
REMARK VINA RESULT:   -13.229     32.179     33.195
REMARK INTER + INTRA:         -14.997
REMARK INTER:                 -16.316
REMARK INTRA:                   1.320
REMARK UNBOUND:                 1.326
REMARK  6 active torsions:
REMARK  status: ('A' for Active; 'I' for Inactive)
REMARK    1  A    between atoms: C_22  and  O_1 
REMARK    2  A    between atoms: C_24  and  O_2 
REMARK    3  A    between atoms: O_3  and  C_30 
REMARK    4  A    between atoms: O_4  and  C_33 
REMARK    5  A    between atoms: C_14  and  C_30 
REMARK    6  A    between atoms: C_19  and  C_33 
ROOT
ATOM      1  C   UNL d   1     -19.163  12.670 -25.141  0.00  0.00    -0.028 A 
ATOM      2  C   UNL d   1     -19.095  12.080 -24.336  0.00  0.00     0.007 A 
ATOM      3  C   UNL d   1     -19.286  12.453 -23.382  0.00  0.00    -0.033 A 
ATOM      4  C   UNL d   1     -18.976  12.298 -26.050  0.00  0.00    -0.013 A 
ATOM      5  C   UNL d   1     -19.551  13.453 -23.265  0.00  0.00     0.007 A 
ATOM      6  C   UNL d   1     -19.426  13.672 -25.048  0.00  0.00     0.011 A 
ATOM      7  C   UNL d   1     -18.722  11.336 -26.155  0.00  0.00    -0.069 A 
ATOM      8  C   UNL d   1     -19.622  14.067 -24.104  0.00  0.00     0.007 A 
ATOM      9  C   UNL d   1     -19.755  13.864 -22.282  0.00  0.00     0.010 A 
ATOM     10  C   UNL d   1     -18.525  10.934 -27.095  0.00  0.00     0.038 A 
ATOM     11  C   UNL d   1     -18.841  11.118 -24.440  0.00  0.00     0.033 A 
ATOM     12  C   UNL d   1     -19.206  11.794 -22.524  0.00  0.00     0.044 A 
ATOM     13  C   UNL d   1     -19.051  12.925 -26.879  0.00  0.00     0.016 A 
ATOM     14  C   UNL d   1     -18.593  11.542 -27.938  0.00  0.00     0.053 A 
ATOM     15  C   UNL d   1     -19.313  13.487 -25.697  0.00  0.00     0.016 C 
ATOM     16  C   UNL d   1     -18.858  12.544 -27.829  0.00  0.00     0.022 A 
ATOM     17  C   UNL d   1     -19.682  13.225 -21.409  0.00  0.00     0.157 A 
ATOM     18  C   UNL d   1     -18.654  10.747 -25.350  0.00  0.00    -0.022 A 
ATOM     19  C   UNL d   1     -19.406  12.182 -21.530  0.00  0.00     0.148 A 
ATOM     20  C   UNL d   1     -19.031  11.492 -23.495  0.00  0.00     0.016 C 
ATOM     21  C   UNL d   1     -19.192  13.245 -26.290  0.00  0.00     0.021 C 
ATOM     22  C   UNL d   1     -18.251   9.889 -27.184  0.00  0.00    -0.005 A 
ATOM     23  C   UNL d   1     -18.392  11.147 -28.928  0.00  0.00     0.021 A 
ATOM     24  C   UNL d   1     -18.045   9.470 -28.164  0.00  0.00    -0.014 A 
ATOM     25  C   UNL d   1     -19.940  14.758 -22.690  0.00  0.00     0.020 C 
ATOM     26  C   UNL d   1     -18.117  10.104 -29.042  0.00  0.00     0.006 A 
ATOM     27  C   UNL d   1     -18.188   9.313 -26.368  0.00  0.00     0.011 C 
ATOM     28  C   UNL d   1     -17.792   8.507 -28.256  0.00  0.00     0.010 C 
ENDROOT
BRANCH   9  29
ATOM     29  C   UNL d   1     -20.010  14.636 -21.700  0.00  0.00     0.176 C 
BRANCH  29  30
ATOM     30  O   UNL d   1     -19.851  15.572 -22.013  0.00  0.00    -0.400 OA
ATOM     31  H   UNL d   1     -20.021  16.051 -21.657  0.00  0.00     0.209 HD
ENDBRANCH  29  30
ENDBRANCH   9  29
BRANCH  17  32
ATOM     32  O   UNL d   1     -19.867  13.592 -20.498  0.00  0.00    -0.392 OA
ATOM     33  H   UNL d   1     -20.371  13.409 -20.186  0.00  0.00     0.210 HD
ENDBRANCH  17  32
BRANCH  19  34
ATOM     34  O   UNL d   1     -19.335  11.584 -20.733  0.00  0.00    -0.393 OA
ATOM     35  H   UNL d   1     -18.891  11.681 -20.310  0.00  0.00     0.210 HD
ENDBRANCH  19  34
BRANCH  14  36
ATOM     36  C   UNL d   1     -18.659  12.126 -28.748  0.00  0.00     0.149 C 
ATOM     37  O   UNL d   1     -19.544  12.268 -29.190  0.00  0.00    -0.649 OA
BRANCH  36  38
ATOM     38  O   UNL d   1     -17.840  12.567 -29.114  0.00  0.00    -0.776 OA
ATOM     39  H   UNL d   1     -17.669  12.464 -29.701  0.00  0.00     0.167 HD
ENDBRANCH  36  38
ENDBRANCH  14  36
TORSDOF 6
ENDMDL
MODEL 4
REMARK VINA RESULT:   -12.863     54.141     54.779
REMARK INTER + INTRA:         -14.545
REMARK INTER:                 -15.860
REMARK INTRA:                   1.315
REMARK UNBOUND:                 1.326
REMARK  6 active torsions:
REMARK  status: ('A' for Active; 'I' for Inactive)
REMARK    1  A    between atoms: C_22  and  O_1 
REMARK    2  A    between atoms: C_24  and  O_2 
REMARK    3  A    between atoms: O_3  and  C_30 
REMARK    4  A    between atoms: O_4  and  C_33 
REMARK    5  A    between atoms: C_14  and  C_30 
REMARK    6  A    between atoms: C_19  and  C_33 
ROOT
ATOM      1  C   UNL d   1     -32.314  -5.864 -41.039  0.00  0.00    -0.028 A 
ATOM      2  C   UNL d   1     -33.252  -5.518 -41.062  0.00  0.00     0.007 A 
ATOM      3  C   UNL d   1     -33.677  -5.187 -41.954  0.00  0.00    -0.033 A 
ATOM      4  C   UNL d   1     -31.919  -6.178 -40.176  0.00  0.00    -0.013 A 
ATOM      5  C   UNL d   1     -33.119  -5.216 -42.832  0.00  0.00     0.007 A 
ATOM      6  C   UNL d   1     -31.737  -5.902 -41.904  0.00  0.00     0.011 A 
ATOM      7  C   UNL d   1     -32.462  -6.147 -39.336  0.00  0.00    -0.069 A 
ATOM      8  C   UNL d   1     -32.142  -5.577 -42.807  0.00  0.00     0.007 A 
ATOM      9  C   UNL d   1     -33.541  -4.877 -43.772  0.00  0.00     0.010 A 
ATOM     10  C   UNL d   1     -32.064  -6.471 -38.430  0.00  0.00     0.038 A 
ATOM     11  C   UNL d   1     -33.795  -5.486 -40.223  0.00  0.00     0.033 A 
ATOM     12  C   UNL d   1     -34.697  -4.816 -41.955  0.00  0.00     0.044 A 
ATOM     13  C   UNL d   1     -30.940  -6.536 -40.167  0.00  0.00     0.016 A 
ATOM     14  C   UNL d   1     -31.087  -6.833 -38.397  0.00  0.00     0.053 A 
ATOM     15  C   UNL d   1     -31.403  -6.133 -41.352  0.00  0.00     0.016 C 
ATOM     16  C   UNL d   1     -30.522  -6.865 -39.272  0.00  0.00     0.022 A 
ATOM     17  C   UNL d   1     -34.558  -4.502 -43.798  0.00  0.00     0.157 A 
ATOM     18  C   UNL d   1     -33.399  -5.801 -39.360  0.00  0.00    -0.022 A 
ATOM     19  C   UNL d   1     -35.140  -4.471 -42.883  0.00  0.00     0.148 A 
ATOM     20  C   UNL d   1     -34.214  -5.158 -41.110  0.00  0.00     0.016 C 
ATOM     21  C   UNL d   1     -31.145  -6.338 -40.790  0.00  0.00     0.021 C 
ATOM     22  C   UNL d   1     -32.671  -6.427 -37.532  0.00  0.00    -0.005 A 
ATOM     23  C   UNL d   1     -30.651  -7.176 -37.465  0.00  0.00     0.021 A 
ATOM     24  C   UNL d   1     -32.257  -6.765 -36.588  0.00  0.00    -0.014 A 
ATOM     25  C   UNL d   1     -32.684  -5.096 -44.240  0.00  0.00     0.020 C 
ATOM     26  C   UNL d   1     -31.240  -7.142 -36.554  0.00  0.00     0.006 A 
ATOM     27  C   UNL d   1     -33.608  -6.078 -37.575  0.00  0.00     0.011 C 
ATOM     28  C   UNL d   1     -32.809  -6.729 -35.755  0.00  0.00     0.010 C 
ENDROOT
BRANCH   9  29
ATOM     29  C   UNL d   1     -33.452  -4.715 -44.755  0.00  0.00     0.176 C 
BRANCH  29  30
ATOM     30  O   UNL d   1     -32.549  -4.728 -45.185  0.00  0.00    -0.400 OA
ATOM     31  H   UNL d   1     -32.484  -4.549 -45.774  0.00  0.00     0.209 HD
ENDBRANCH  29  30
ENDBRANCH   9  29
BRANCH  17  32
ATOM     32  O   UNL d   1     -34.957  -4.186 -44.659  0.00  0.00    -0.392 OA
ATOM     33  H   UNL d   1     -35.051  -4.587 -45.123  0.00  0.00     0.210 HD
ENDBRANCH  17  32
BRANCH  19  34
ATOM     34  O   UNL d   1     -36.079  -4.127 -42.896  0.00  0.00    -0.393 OA
ATOM     35  H   UNL d   1     -36.205  -3.561 -42.676  0.00  0.00     0.210 HD
ENDBRANCH  19  34
BRANCH  14  36
ATOM     36  C   UNL d   1     -30.150  -7.180 -38.366  0.00  0.00     0.149 C 
ATOM     37  O   UNL d   1     -29.386  -6.545 -38.252  0.00  0.00    -0.649 OA
BRANCH  36  38
ATOM     38  O   UNL d   1     -29.977  -8.161 -38.448  0.00  0.00    -0.776 OA
ATOM     39  H   UNL d   1     -29.499  -8.417 -38.147  0.00  0.00     0.167 HD
ENDBRANCH  36  38
ENDBRANCH  14  36
TORSDOF 6
ENDMDL
MODEL 5
REMARK VINA RESULT:   -12.840     30.454     31.605
REMARK INTER + INTRA:         -14.517
REMARK INTER:                 -15.848
REMARK INTRA:                   1.331
REMARK UNBOUND:                 1.326
REMARK  6 active torsions:
REMARK  status: ('A' for Active; 'I' for Inactive)
REMARK    1  A    between atoms: C_22  and  O_1 
REMARK    2  A    between atoms: C_24  and  O_2 
REMARK    3  A    between atoms: O_3  and  C_30 
REMARK    4  A    between atoms: O_4  and  C_33 
REMARK    5  A    between atoms: C_14  and  C_30 
REMARK    6  A    between atoms: C_19  and  C_33 
ROOT
ATOM      1  C   UNL d   1     -10.658   5.411 -39.950  0.00  0.00    -0.028 A 
ATOM      2  C   UNL d   1     -10.273   5.259 -40.860  0.00  0.00     0.007 A 
ATOM      3  C   UNL d   1      -9.891   4.328 -41.131  0.00  0.00    -0.033 A 
ATOM      4  C   UNL d   1     -11.022   6.309 -39.705  0.00  0.00    -0.013 A 
ATOM      5  C   UNL d   1      -9.910   3.546 -40.444  0.00  0.00     0.007 A 
ATOM      6  C   UNL d   1     -10.688   4.643 -39.248  0.00  0.00     0.011 A 
ATOM      7  C   UNL d   1     -11.000   7.056 -40.369  0.00  0.00    -0.069 A 
ATOM      8  C   UNL d   1     -10.311   3.704 -39.496  0.00  0.00     0.007 A 
ATOM      9  C   UNL d   1      -9.518   2.567 -40.703  0.00  0.00     0.010 A 
ATOM     10  C   UNL d   1     -11.374   7.998 -40.128  0.00  0.00     0.038 A 
ATOM     11  C   UNL d   1     -10.251   6.006 -41.525  0.00  0.00     0.033 A 
ATOM     12  C   UNL d   1      -9.477   4.187 -42.124  0.00  0.00     0.044 A 
ATOM     13  C   UNL d   1     -11.420   6.452 -38.753  0.00  0.00     0.016 A 
ATOM     14  C   UNL d   1     -11.777   8.164 -39.182  0.00  0.00     0.053 A 
ATOM     15  C   UNL d   1     -10.953   5.228 -39.012  0.00  0.00     0.016 C 
ATOM     16  C   UNL d   1     -11.800   7.385 -38.490  0.00  0.00     0.022 A 
ATOM     17  C   UNL d   1      -9.100   2.403 -41.690  0.00  0.00     0.157 A 
ATOM     18  C   UNL d   1     -10.614   6.904 -41.279  0.00  0.00    -0.022 A 
ATOM     19  C   UNL d   1      -9.079   3.218 -42.406  0.00  0.00     0.148 A 
ATOM     20  C   UNL d   1      -9.872   5.080 -41.790  0.00  0.00     0.016 C 
ATOM     21  C   UNL d   1     -11.190   5.815 -38.852  0.00  0.00     0.021 C 
ATOM     22  C   UNL d   1     -11.340   8.792 -40.865  0.00  0.00    -0.005 A 
ATOM     23  C   UNL d   1     -12.174   9.136 -38.908  0.00  0.00     0.021 A 
ATOM     24  C   UNL d   1     -11.730   9.773 -40.614  0.00  0.00    -0.014 A 
ATOM     25  C   UNL d   1      -9.754   2.228 -39.793  0.00  0.00     0.020 C 
ATOM     26  C   UNL d   1     -12.150   9.946 -39.629  0.00  0.00     0.006 A 
ATOM     27  C   UNL d   1     -10.950   8.623 -41.772  0.00  0.00     0.011 C 
ATOM     28  C   UNL d   1     -11.703  10.513 -41.287  0.00  0.00     0.010 C 
ENDROOT
BRANCH   9  29
ATOM     29  C   UNL d   1      -9.322   1.618 -40.457  0.00  0.00     0.176 C 
BRANCH  29  30
ATOM     30  O   UNL d   1      -9.938   1.123 -39.845  0.00  0.00    -0.400 OA
ATOM     31  H   UNL d   1      -9.772   1.017 -39.257  0.00  0.00     0.209 HD
ENDBRANCH  29  30
ENDBRANCH   9  29
BRANCH  17  32
ATOM     32  O   UNL d   1      -8.735   1.506 -41.940  0.00  0.00    -0.392 OA
ATOM     33  H   UNL d   1      -8.835   1.017 -41.571  0.00  0.00     0.210 HD
ENDBRANCH  17  32
BRANCH  19  34
ATOM     34  O   UNL d   1      -8.696   3.077 -43.319  0.00  0.00    -0.393 OA
ATOM     35  H   UNL d   1      -8.099   2.926 -43.384  0.00  0.00     0.210 HD
ENDBRANCH  19  34
BRANCH  14  36
ATOM     36  C   UNL d   1     -12.164   8.323 -38.274  0.00  0.00     0.149 C 
ATOM     37  O   UNL d   1     -13.125   8.108 -38.096  0.00  0.00    -0.649 OA
BRANCH  36  38
ATOM     38  O   UNL d   1     -11.592   8.696 -37.545  0.00  0.00    -0.776 OA
ATOM     39  H   UNL d   1     -11.334   9.256 -37.609  0.00  0.00     0.167 HD
ENDBRANCH  36  38
ENDBRANCH  14  36
TORSDOF 6
ENDMDL
