MODEL 1
REMARK VINA RESULT:     0.000      0.000      0.000
REMARK INTER + INTRA:           0.000
REMARK INTER:                   0.000
REMARK INTRA:                   0.000
REMARK UNBOUND:                 0.000
REMARK  0 active torsions:
REMARK  status: ('A' for Active; 'I' for Inactive)
ROOT
ATOM      1  O   UNL d   1     -26.543 -18.157  -6.955  0.00  0.00    -0.648 OA
ATOM      2  O   UNL d   1     -27.806 -18.201  -8.139  0.00  0.00    -0.648 OA
ATOM      3  C   UNL d   1     -28.003 -17.261  -6.697  0.00  0.00     0.129 C 
ATOM      4  C   UNL d   1     -27.451 -17.873  -7.263  0.00  0.00     0.168 C 
ENDROOT
TORSDOF 0
ENDMDL
MODEL 2
REMARK VINA RESULT:     0.000     27.972     28.368
REMARK INTER + INTRA:           0.000
REMARK INTER:                   0.000
REMARK INTRA:                   0.000
REMARK UNBOUND:                 0.000
REMARK  0 active torsions:
REMARK  status: ('A' for Active; 'I' for Inactive)
ROOT
ATOM      1  O   UNL d   1      -3.432  -8.229   6.155  0.00  0.00    -0.648 OA
ATOM      2  O   UNL d   1      -3.146  -8.863   4.568  0.00  0.00    -0.648 OA
ATOM      3  C   UNL d   1      -4.766  -8.719   5.165  0.00  0.00     0.129 C 
ATOM      4  C   UNL d   1      -3.781  -8.604   5.296  0.00  0.00     0.168 C 
ENDROOT
TORSDOF 0
ENDMDL
MODEL 3
REMARK VINA RESULT:     0.000     27.893     28.229
REMARK INTER + INTRA:           0.000
REMARK INTER:                   0.000
REMARK INTRA:                   0.000
REMARK UNBOUND:                 0.000
REMARK  0 active torsions:
REMARK  status: ('A' for Active; 'I' for Inactive)
ROOT
ATOM      1  O   UNL d   1      -5.033  -4.656   4.301  0.00  0.00    -0.648 OA
ATOM      2  O   UNL d   1      -3.754  -5.076   3.212  0.00  0.00    -0.648 OA
ATOM      3  C   UNL d   1      -5.398  -5.422   2.791  0.00  0.00     0.129 C 
ATOM      4  C   UNL d   1      -4.728  -5.052   3.435  0.00  0.00     0.168 C 
ENDROOT
TORSDOF 0
ENDMDL
MODEL 4
REMARK VINA RESULT:     0.000     26.675     26.924
REMARK INTER + INTRA:           0.000
REMARK INTER:                   0.000
REMARK INTRA:                   0.000
REMARK UNBOUND:                 0.000
REMARK  0 active torsions:
REMARK  status: ('A' for Active; 'I' for Inactive)
ROOT
ATOM      1  O   UNL d   1      -5.287  -7.811   5.382  0.00  0.00    -0.648 OA
ATOM      2  O   UNL d   1      -6.344  -8.590   6.510  0.00  0.00    -0.648 OA
ATOM      3  C   UNL d   1      -6.903  -7.229   5.598  0.00  0.00     0.129 C 
ATOM      4  C   UNL d   1      -6.178  -7.877   5.830  0.00  0.00     0.168 C 
ENDROOT
TORSDOF 0
ENDMDL
MODEL 5
REMARK VINA RESULT:     0.000      2.081      2.227
REMARK INTER + INTRA:           0.000
REMARK INTER:                   0.000
REMARK INTRA:                   0.000
REMARK UNBOUND:                 0.000
REMARK  0 active torsions:
REMARK  status: ('A' for Active; 'I' for Inactive)
ROOT
ATOM      1  O   UNL d   1     -26.265 -17.486  -8.894  0.00  0.00    -0.648 OA
ATOM      2  O   UNL d   1     -27.366 -16.402  -8.112  0.00  0.00    -0.648 OA
ATOM      3  C   UNL d   1     -25.659 -16.129  -8.004  0.00  0.00     0.129 C 
ATOM      4  C   UNL d   1     -26.430 -16.672  -8.337  0.00  0.00     0.168 C 
ENDROOT
TORSDOF 0
ENDMDL
