MODEL 1
REMARK VINA RESULT:    -8.929      0.000      0.000
REMARK INTER + INTRA:          -7.000
REMARK INTER:                  -9.975
REMARK INTRA:                   2.975
REMARK UNBOUND:                 2.974
REMARK  2 active torsions:
REMARK  status: ('A' for Active; 'I' for Inactive)
REMARK    1  A    between atoms: O_3  and  C_17 
REMARK    2  A    between atoms: O_4  and  C_21 
ROOT
ATOM      1  O   UNL d   1      10.367  49.542  -4.257  0.00  0.00    -0.323 OA
ATOM      2  O   UNL d   1      11.090  48.214  -3.532  0.00  0.00    -0.323 OA
ATOM      3  N   UNL d   1       7.613  46.538  -6.235  0.00  0.00    -0.400 N 
ATOM      4  C   UNL d   1       7.953  47.459  -6.044  0.00  0.00     0.117 A 
ATOM      5  C   UNL d   1       7.515  48.294  -6.487  0.00  0.00     0.069 A 
ATOM      6  C   UNL d   1       8.725  47.587  -5.421  0.00  0.00    -0.026 A 
ATOM      7  C   UNL d   1       8.043  45.746  -5.803  0.00  0.00     0.122 A 
ATOM      8  C   UNL d   1       6.810  46.390  -6.882  0.00  0.00     0.160 A 
ATOM      9  C   UNL d   1       8.815  45.874  -5.180  0.00  0.00     0.058 A 
ATOM     10  C   UNL d   1       9.155  46.795  -4.989  0.00  0.00    -0.045 A 
ATOM     11  C   UNL d   1       6.711  48.168  -7.137  0.00  0.00    -0.045 A 
ATOM     12  C   UNL d   1       6.357  47.210  -7.336  0.00  0.00     0.002 A 
ATOM     13  C   UNL d   1       9.068  48.553  -5.231  0.00  0.00     0.049 A 
ATOM     14  C   UNL d   1       9.959  46.913  -4.337  0.00  0.00     0.047 A 
ATOM     15  C   UNL d   1       5.521  47.054  -8.010  0.00  0.00     0.110 A 
ATOM     16  C   UNL d   1       6.255  49.038  -7.598  0.00  0.00     0.011 A 
ATOM     17  C   UNL d   1       9.871  48.694  -4.583  0.00  0.00     0.105 A 
ATOM     18  C   UNL d   1      10.320  47.869  -4.133  0.00  0.00     0.105 A 
ATOM     19  C   UNL d   1       5.048  47.909  -8.483  0.00  0.00     0.102 A 
ATOM     20  C   UNL d   1       5.417  48.908  -8.275  0.00  0.00     0.040 A 
ATOM     21  C   UNL d   1      11.119  49.246  -3.608  0.00  0.00     0.352 A 
ENDROOT
BRANCH  15  22
ATOM     22  O   UNL d   1       5.188  46.130  -8.195  0.00  0.00    -0.352 OA
ATOM     23  C   UNL d   1       5.585  45.594  -8.940  0.00  0.00     0.210 C 
ENDBRANCH  15  22
BRANCH  19  24
ATOM     24  O   UNL d   1       4.277  47.777  -9.106  0.00  0.00    -0.353 OA
ATOM     25  C   UNL d   1       3.746  48.564  -9.418  0.00  0.00     0.210 C 
ENDBRANCH  19  24
TORSDOF 2
ENDMDL
MODEL 2
REMARK VINA RESULT:    -8.902      1.031      6.045
REMARK INTER + INTRA:          -6.969
REMARK INTER:                  -9.990
REMARK INTRA:                   3.021
REMARK UNBOUND:                 2.974
REMARK  2 active torsions:
REMARK  status: ('A' for Active; 'I' for Inactive)
REMARK    1  A    between atoms: O_3  and  C_17 
REMARK    2  A    between atoms: O_4  and  C_21 
ROOT
ATOM      1  O   UNL d   1       5.891  45.323  -8.446  0.00  0.00    -0.323 OA
ATOM      2  O   UNL d   1       4.866  46.594  -8.829  0.00  0.00    -0.323 OA
ATOM      3  N   UNL d   1       7.938  48.257  -5.666  0.00  0.00    -0.400 N 
ATOM      4  C   UNL d   1       7.812  47.365  -6.100  0.00  0.00     0.117 A 
ATOM      5  C   UNL d   1       8.441  46.566  -5.873  0.00  0.00     0.069 A 
ATOM      6  C   UNL d   1       7.074  47.231  -6.762  0.00  0.00    -0.026 A 
ATOM      7  C   UNL d   1       7.327  49.015  -5.894  0.00  0.00     0.122 A 
ATOM      8  C   UNL d   1       8.702  48.412  -4.976  0.00  0.00     0.160 A 
ATOM      9  C   UNL d   1       6.589  48.881  -6.556  0.00  0.00     0.058 A 
ATOM     10  C   UNL d   1       6.463  47.989  -6.990  0.00  0.00    -0.045 A 
ATOM     11  C   UNL d   1       9.211  46.698  -5.185  0.00  0.00    -0.045 A 
ATOM     12  C   UNL d   1       9.343  47.627  -4.733  0.00  0.00     0.002 A 
ATOM     13  C   UNL d   1       6.955  46.295  -7.205  0.00  0.00     0.049 A 
ATOM     14  C   UNL d   1       5.690  47.864  -7.677  0.00  0.00     0.047 A 
ATOM     15  C   UNL d   1      10.138  47.789  -4.014  0.00  0.00     0.110 A 
ATOM     16  C   UNL d   1       9.866  45.866  -4.948  0.00  0.00     0.011 A 
ATOM     17  C   UNL d   1       6.189  46.148  -7.896  0.00  0.00     0.105 A 
ATOM     18  C   UNL d   1       5.552  46.937  -8.133  0.00  0.00     0.105 A 
ATOM     19  C   UNL d   1      10.806  46.972  -3.761  0.00  0.00     0.102 A 
ATOM     20  C   UNL d   1      10.669  46.004  -4.231  0.00  0.00     0.040 A 
ATOM     21  C   UNL d   1       5.075  45.599  -9.022  0.00  0.00     0.352 A 
ENDROOT
BRANCH  15  22
ATOM     22  O   UNL d   1      10.256  48.685  -3.586  0.00  0.00    -0.352 OA
ATOM     23  C   UNL d   1      10.853  49.367  -4.009  0.00  0.00     0.210 C 
ENDBRANCH  15  22
BRANCH  19  24
ATOM     24  O   UNL d   1      11.543  47.110  -3.099  0.00  0.00    -0.353 OA
ATOM     25  C   UNL d   1      11.831  46.357  -2.507  0.00  0.00     0.210 C 
ENDBRANCH  19  24
TORSDOF 2
ENDMDL
MODEL 3
REMARK VINA RESULT:    -7.394      2.863      4.110
REMARK INTER + INTRA:          -5.285
REMARK INTER:                  -8.277
REMARK INTRA:                   2.992
REMARK UNBOUND:                 2.974
REMARK  2 active torsions:
REMARK  status: ('A' for Active; 'I' for Inactive)
REMARK    1  A    between atoms: O_3  and  C_17 
REMARK    2  A    between atoms: O_4  and  C_21 
ROOT
ATOM      1  O   UNL d   1       5.865  43.550  -5.281  0.00  0.00    -0.323 OA
ATOM      2  O   UNL d   1       6.465  44.391  -3.960  0.00  0.00    -0.323 OA
ATOM      3  N   UNL d   1       6.884  47.259  -7.676  0.00  0.00    -0.400 N 
ATOM      4  C   UNL d   1       6.533  46.329  -7.560  0.00  0.00     0.117 A 
ATOM      5  C   UNL d   1       6.157  45.794  -8.371  0.00  0.00     0.069 A 
ATOM      6  C   UNL d   1       6.540  45.902  -6.656  0.00  0.00    -0.026 A 
ATOM      7  C   UNL d   1       7.241  47.760  -6.889  0.00  0.00     0.122 A 
ATOM      8  C   UNL d   1       6.883  47.716  -8.612  0.00  0.00     0.160 A 
ATOM      9  C   UNL d   1       7.248  47.333  -5.985  0.00  0.00     0.058 A 
ATOM     10  C   UNL d   1       6.897  46.404  -5.868  0.00  0.00    -0.045 A 
ATOM     11  C   UNL d   1       6.147  46.233  -9.315  0.00  0.00    -0.045 A 
ATOM     12  C   UNL d   1       6.512  47.200  -9.437  0.00  0.00     0.002 A 
ATOM     13  C   UNL d   1       6.171  44.933  -6.550  0.00  0.00     0.049 A 
ATOM     14  C   UNL d   1       6.911  45.972  -4.920  0.00  0.00     0.047 A 
ATOM     15  C   UNL d   1       6.512  47.677 -10.411  0.00  0.00     0.110 A 
ATOM     16  C   UNL d   1       5.756  45.675 -10.160  0.00  0.00     0.011 A 
ATOM     17  C   UNL d   1       6.174  44.481  -5.612  0.00  0.00     0.105 A 
ATOM     18  C   UNL d   1       6.547  45.004  -4.791  0.00  0.00     0.105 A 
ATOM     19  C   UNL d   1       6.125  47.140 -11.271  0.00  0.00     0.102 A 
ATOM     20  C   UNL d   1       5.745  46.131 -11.144  0.00  0.00     0.040 A 
ATOM     21  C   UNL d   1       6.044  43.495  -4.262  0.00  0.00     0.352 A 
ENDROOT
BRANCH  15  22
ATOM     22  O   UNL d   1       6.865  48.607 -10.517  0.00  0.00    -0.352 OA
ATOM     23  C   UNL d   1       6.257  49.391 -10.388  0.00  0.00     0.210 C 
ENDBRANCH  15  22
BRANCH  19  24
ATOM     24  O   UNL d   1       6.120  47.570 -12.173  0.00  0.00    -0.353 OA
ATOM     25  C   UNL d   1       6.122  47.004 -12.997  0.00  0.00     0.210 C 
ENDBRANCH  19  24
TORSDOF 2
ENDMDL
MODEL 4
REMARK VINA RESULT:    -7.352      3.190      5.012
REMARK INTER + INTRA:          -5.238
REMARK INTER:                  -8.219
REMARK INTRA:                   2.982
REMARK UNBOUND:                 2.974
REMARK  2 active torsions:
REMARK  status: ('A' for Active; 'I' for Inactive)
REMARK    1  A    between atoms: O_3  and  C_17 
REMARK    2  A    between atoms: O_4  and  C_21 
ROOT
ATOM      1  O   UNL d   1       5.700  49.458  -8.352  0.00  0.00    -0.323 OA
ATOM      2  O   UNL d   1       6.952  48.913  -9.324  0.00  0.00    -0.323 OA
ATOM      3  N   UNL d   1       6.527  45.795  -5.817  0.00  0.00    -0.400 N 
ATOM      4  C   UNL d   1       6.043  46.639  -6.050  0.00  0.00     0.117 A 
ATOM      5  C   UNL d   1       5.263  46.990  -5.456  0.00  0.00     0.069 A 
ATOM      6  C   UNL d   1       6.307  47.157  -6.864  0.00  0.00    -0.026 A 
ATOM      7  C   UNL d   1       7.274  45.470  -6.397  0.00  0.00     0.122 A 
ATOM      8  C   UNL d   1       6.264  45.245  -4.973  0.00  0.00     0.160 A 
ATOM      9  C   UNL d   1       7.537  45.989  -7.210  0.00  0.00     0.058 A 
ATOM     10  C   UNL d   1       7.054  46.832  -7.444  0.00  0.00    -0.045 A 
ATOM     11  C   UNL d   1       4.983  46.455  -4.607  0.00  0.00    -0.045 A 
ATOM     12  C   UNL d   1       5.487  45.577  -4.364  0.00  0.00     0.002 A 
ATOM     13  C   UNL d   1       5.793  48.034  -7.094  0.00  0.00     0.049 A 
ATOM     14  C   UNL d   1       7.339  47.361  -8.294  0.00  0.00     0.047 A 
ATOM     15  C   UNL d   1       5.213  45.003  -3.485  0.00  0.00     0.110 A 
ATOM     16  C   UNL d   1       4.171  46.821  -3.988  0.00  0.00     0.011 A 
ATOM     17  C   UNL d   1       6.062  48.580  -7.940  0.00  0.00     0.105 A 
ATOM     18  C   UNL d   1       6.840  48.241  -8.544  0.00  0.00     0.105 A 
ATOM     19  C   UNL d   1       4.404  45.349  -2.850  0.00  0.00     0.102 A 
ATOM     20  C   UNL d   1       3.879  46.265  -3.104  0.00  0.00     0.040 A 
ATOM     21  C   UNL d   1       6.249  49.663  -9.205  0.00  0.00     0.352 A 
ENDROOT
BRANCH  15  22
ATOM     22  O   UNL d   1       5.703  44.161  -3.260  0.00  0.00    -0.352 OA
ATOM     23  C   UNL d   1       5.396  43.288  -3.637  0.00  0.00     0.210 C 
ENDBRANCH  15  22
BRANCH  19  24
ATOM     24  O   UNL d   1       4.143  44.829  -2.038  0.00  0.00    -0.353 OA
ATOM     25  C   UNL d   1       3.616  45.267  -1.310  0.00  0.00     0.210 C 
ENDBRANCH  19  24
TORSDOF 2
ENDMDL
MODEL 5
REMARK VINA RESULT:    -7.328     18.732     21.574
REMARK INTER + INTRA:          -5.211
REMARK INTER:                  -8.210
REMARK INTRA:                   2.999
REMARK UNBOUND:                 2.974
REMARK  2 active torsions:
REMARK  status: ('A' for Active; 'I' for Inactive)
REMARK    1  A    between atoms: O_3  and  C_17 
REMARK    2  A    between atoms: O_4  and  C_21 
ROOT
ATOM      1  O   UNL d   1      21.084  40.611  13.234  0.00  0.00    -0.323 OA
ATOM      2  O   UNL d   1      20.455  39.882  14.606  0.00  0.00    -0.323 OA
ATOM      3  N   UNL d   1      17.261  39.288  11.193  0.00  0.00    -0.400 N 
ATOM      4  C   UNL d   1      18.157  39.731  11.228  0.00  0.00     0.117 A 
ATOM      5  C   UNL d   1      18.561  40.188  10.383  0.00  0.00     0.069 A 
ATOM      6  C   UNL d   1      18.678  39.739  12.081  0.00  0.00    -0.026 A 
ATOM      7  C   UNL d   1      16.886  38.853  12.011  0.00  0.00     0.122 A 
ATOM      8  C   UNL d   1      16.707  39.272  10.311  0.00  0.00     0.160 A 
ATOM      9  C   UNL d   1      17.407  38.861  12.865  0.00  0.00     0.058 A 
ATOM     10  C   UNL d   1      18.303  39.304  12.900  0.00  0.00    -0.045 A 
ATOM     11  C   UNL d   1      18.024  40.184   9.491  0.00  0.00    -0.045 A 
ATOM     12  C   UNL d   1      17.091  39.723   9.454  0.00  0.00     0.002 A 
ATOM     13  C   UNL d   1      19.610  40.204  12.102  0.00  0.00     0.049 A 
ATOM     14  C   UNL d   1      18.833  39.304  13.796  0.00  0.00     0.047 A 
ATOM     15  C   UNL d   1      16.514  39.706   8.536  0.00  0.00     0.110 A 
ATOM     16  C   UNL d   1      18.445  40.660   8.611  0.00  0.00     0.011 A 
ATOM     17  C   UNL d   1      20.159  40.216  12.988  0.00  0.00     0.105 A 
ATOM     18  C   UNL d   1      19.768  39.763  13.840  0.00  0.00     0.105 A 
ATOM     19  C   UNL d   1      16.914  40.176   7.643  0.00  0.00     0.102 A 
ATOM     20  C   UNL d   1      17.886  40.656   7.681  0.00  0.00     0.040 A 
ATOM     21  C   UNL d   1      21.266  40.404  14.232  0.00  0.00     0.352 A 
ENDROOT
BRANCH  15  22
ATOM     22  O   UNL d   1      15.619  39.260   8.512  0.00  0.00    -0.352 OA
ATOM     23  C   UNL d   1      14.802  39.762   8.797  0.00  0.00     0.210 C 
ENDBRANCH  15  22
BRANCH  19  24
ATOM     24  O   UNL d   1      16.390  40.166   6.791  0.00  0.00    -0.353 OA
ATOM     25  C   UNL d   1      16.857  40.287   5.916  0.00  0.00     0.210 C 
ENDBRANCH  19  24
TORSDOF 2
ENDMDL
