MODEL 1
REMARK VINA RESULT:   -10.348      0.000      0.000
REMARK INTER + INTRA:         -10.537
REMARK INTER:                 -12.576
REMARK INTRA:                   2.039
REMARK UNBOUND:                 1.928
REMARK  5 active torsions:
REMARK  status: ('A' for Active; 'I' for Inactive)
REMARK    1  A    between atoms: O_2  and  C_13 
REMARK    2  A    between atoms: O_3  and  C_19 
REMARK    3  A    between atoms: O_5  and  C_17 
REMARK    4  A    between atoms: O_6  and  C_21 
REMARK    5  A    between atoms: C_8  and  C_10 
ROOT
ATOM      1  O   UNL d   1     -27.871  20.039  26.286  0.00  0.00    -0.309 OA
ATOM      2  O   UNL d   1     -27.351  17.109  25.908  0.00  0.00    -0.287 OA
ATOM      3  C   UNL d   1     -28.399  18.394  26.408  0.00  0.00     0.081 A 
ATOM      4  C   UNL d   1     -26.997  19.731  25.912  0.00  0.00     0.090 A 
ATOM      5  C   UNL d   1     -28.573  19.371  26.534  0.00  0.00     0.095 A 
ATOM      6  C   UNL d   1     -27.524  18.086  26.034  0.00  0.00     0.190 A 
ATOM      7  C   UNL d   1     -26.823  18.754  25.786  0.00  0.00     0.094 A 
ATOM      8  C   UNL d   1     -29.120  17.687  26.662  0.00  0.00     0.085 A 
ATOM      9  C   UNL d   1     -29.479  19.708  26.923  0.00  0.00     0.075 A 
ATOM     10  C   UNL d   1     -30.214  19.017  27.183  0.00  0.00     0.071 A 
ATOM     11  C   UNL d   1     -30.033  18.000  27.052  0.00  0.00     0.074 A 
ENDROOT
BRANCH   4  12
ATOM     12  C   UNL d   1     -26.296  20.399  25.664  0.00  0.00     0.001 A 
ATOM     13  C   UNL d   1     -25.341  20.241  25.917  0.00  0.00     0.054 A 
ATOM     14  C   UNL d   1     -24.640  20.909  25.669  0.00  0.00     0.102 A 
ATOM     15  C   UNL d   1     -24.893  21.736  25.168  0.00  0.00     0.099 A 
ATOM     16  C   UNL d   1     -25.848  21.895  24.914  0.00  0.00     0.040 A 
ATOM     17  C   UNL d   1     -26.549  21.227  25.162  0.00  0.00     0.017 A 
BRANCH  14  18
ATOM     18  O   UNL d   1     -23.686  20.750  25.923  0.00  0.00    -0.353 OA
ATOM     19  C   UNL d   1     -23.463  20.096  26.645  0.00  0.00     0.210 C 
ENDBRANCH  14  18
BRANCH  15  20
ATOM     20  O   UNL d   1     -24.192  22.405  24.920  0.00  0.00    -0.358 OA
ATOM     21  H   UNL d   1     -23.750  22.254  24.512  0.00  0.00     0.217 HD
ENDBRANCH  15  20
ENDBRANCH   4  12
BRANCH   8  22
ATOM     22  O   UNL d   1     -28.935  16.712  26.532  0.00  0.00    -0.360 OA
ATOM     23  H   UNL d   1     -29.351  16.355  26.243  0.00  0.00     0.217 HD
ENDBRANCH   8  22
BRANCH  10  24
ATOM     24  O   UNL d   1     -31.087  19.330  27.557  0.00  0.00    -0.361 OA
ATOM     25  H   UNL d   1     -31.186  19.935  27.650  0.00  0.00     0.217 HD
ENDBRANCH  10  24
TORSDOF 5
ENDMDL
MODEL 2
REMARK VINA RESULT:    -9.968      1.542      5.348
REMARK INTER + INTRA:         -10.079
REMARK INTER:                 -11.904
REMARK INTRA:                   1.824
REMARK UNBOUND:                 1.928
REMARK  5 active torsions:
REMARK  status: ('A' for Active; 'I' for Inactive)
REMARK    1  A    between atoms: O_2  and  C_13 
REMARK    2  A    between atoms: O_3  and  C_19 
REMARK    3  A    between atoms: O_5  and  C_17 
REMARK    4  A    between atoms: O_6  and  C_21 
REMARK    5  A    between atoms: C_8  and  C_10 
ROOT
ATOM      1  O   UNL d   1     -26.229  19.096  24.793  0.00  0.00    -0.309 OA
ATOM      2  O   UNL d   1     -24.157  19.839  26.832  0.00  0.00    -0.287 OA
ATOM      3  C   UNL d   1     -24.680  19.767  25.182  0.00  0.00     0.081 A 
ATOM      4  C   UNL d   1     -26.396  18.921  25.763  0.00  0.00     0.090 A 
ATOM      5  C   UNL d   1     -25.370  19.519  24.503  0.00  0.00     0.095 A 
ATOM      6  C   UNL d   1     -24.847  19.592  26.153  0.00  0.00     0.190 A 
ATOM      7  C   UNL d   1     -25.706  19.169  26.443  0.00  0.00     0.094 A 
ATOM      8  C   UNL d   1     -23.781  20.208  24.895  0.00  0.00     0.085 A 
ATOM      9  C   UNL d   1     -25.210  19.696  23.489  0.00  0.00     0.075 A 
ATOM     10  C   UNL d   1     -24.318  20.136  23.179  0.00  0.00     0.071 A 
ATOM     11  C   UNL d   1     -23.600  20.394  23.886  0.00  0.00     0.074 A 
ENDROOT
BRANCH   4  12
ATOM     12  C   UNL d   1     -27.255  18.498  26.054  0.00  0.00     0.001 A 
ATOM     13  C   UNL d   1     -28.021  19.071  26.345  0.00  0.00     0.054 A 
ATOM     14  C   UNL d   1     -28.879  18.648  26.635  0.00  0.00     0.102 A 
ATOM     15  C   UNL d   1     -28.971  17.652  26.635  0.00  0.00     0.099 A 
ATOM     16  C   UNL d   1     -28.205  17.079  26.344  0.00  0.00     0.040 A 
ATOM     17  C   UNL d   1     -27.346  17.502  26.054  0.00  0.00     0.017 A 
BRANCH  14  18
ATOM     18  O   UNL d   1     -29.646  19.220  26.926  0.00  0.00    -0.353 OA
ATOM     19  C   UNL d   1     -29.503  20.194  27.103  0.00  0.00     0.210 C 
ENDBRANCH  14  18
BRANCH  15  20
ATOM     20  O   UNL d   1     -29.829  17.229  26.925  0.00  0.00    -0.358 OA
ATOM     21  H   UNL d   1     -29.883  16.611  26.935  0.00  0.00     0.217 HD
ENDBRANCH  15  20
ENDBRANCH   4  12
BRANCH   8  22
ATOM     22  O   UNL d   1     -23.098  20.452  25.583  0.00  0.00    -0.360 OA
ATOM     23  H   UNL d   1     -23.015  20.090  26.079  0.00  0.00     0.217 HD
ENDBRANCH   8  22
BRANCH  10  24
ATOM     24  O   UNL d   1     -24.155  20.310  22.207  0.00  0.00    -0.361 OA
ATOM     25  H   UNL d   1     -24.453  19.976  21.778  0.00  0.00     0.217 HD
ENDBRANCH  10  24
TORSDOF 5
ENDMDL
MODEL 3
REMARK VINA RESULT:    -9.948     43.705     44.914
REMARK INTER + INTRA:         -10.055
REMARK INTER:                 -12.078
REMARK INTRA:                   2.023
REMARK UNBOUND:                 1.928
REMARK  5 active torsions:
REMARK  status: ('A' for Active; 'I' for Inactive)
REMARK    1  A    between atoms: O_2  and  C_13 
REMARK    2  A    between atoms: O_3  and  C_19 
REMARK    3  A    between atoms: O_5  and  C_17 
REMARK    4  A    between atoms: O_6  and  C_21 
REMARK    5  A    between atoms: C_8  and  C_10 
ROOT
ATOM      1  O   UNL d   1      -7.048  -0.328  -8.634  0.00  0.00    -0.309 OA
ATOM      2  O   UNL d   1      -6.374   2.383  -9.728  0.00  0.00    -0.287 OA
ATOM      3  C   UNL d   1      -5.932   0.985  -8.805  0.00  0.00     0.081 A 
ATOM      4  C   UNL d   1      -7.715   0.166  -9.192  0.00  0.00     0.090 A 
ATOM      5  C   UNL d   1      -6.157   0.082  -8.441  0.00  0.00     0.095 A 
ATOM      6  C   UNL d   1      -6.599   1.479  -9.364  0.00  0.00     0.190 A 
ATOM      7  C   UNL d   1      -7.490   1.069  -9.557  0.00  0.00     0.094 A 
ATOM      8  C   UNL d   1      -5.008   1.425  -8.612  0.00  0.00     0.085 A 
ATOM      9  C   UNL d   1      -5.472  -0.445  -7.857  0.00  0.00     0.075 A 
ATOM     10  C   UNL d   1      -4.542  -0.024  -7.652  0.00  0.00     0.071 A 
ATOM     11  C   UNL d   1      -4.308   0.916  -8.031  0.00  0.00     0.074 A 
ENDROOT
BRANCH   4  12
ATOM     12  C   UNL d   1      -8.606  -0.244  -9.386  0.00  0.00     0.001 A 
ATOM     13  C   UNL d   1      -9.291  -0.317  -8.661  0.00  0.00     0.054 A 
ATOM     14  C   UNL d   1     -10.182  -0.727  -8.854  0.00  0.00     0.102 A 
ATOM     15  C   UNL d   1     -10.389  -1.064  -9.773  0.00  0.00     0.099 A 
ATOM     16  C   UNL d   1      -9.704  -0.992 -10.498  0.00  0.00     0.040 A 
ATOM     17  C   UNL d   1      -8.812  -0.582 -10.304  0.00  0.00     0.017 A 
BRANCH  14  18
ATOM     18  O   UNL d   1     -10.867  -0.799  -8.129  0.00  0.00    -0.353 OA
ATOM     19  C   UNL d   1     -10.632  -1.235  -7.260  0.00  0.00     0.210 C 
ENDBRANCH  14  18
BRANCH  15  20
ATOM     20  O   UNL d   1     -11.280  -1.474  -9.966  0.00  0.00    -0.358 OA
ATOM     21  H   UNL d   1     -11.782  -1.114 -10.021  0.00  0.00     0.217 HD
ENDBRANCH  15  20
ENDBRANCH   4  12
BRANCH   8  22
ATOM     22  O   UNL d   1      -4.794   2.329  -8.982  0.00  0.00    -0.360 OA
ATOM     23  H   UNL d   1      -5.010   2.494  -9.539  0.00  0.00     0.217 HD
ENDBRANCH   8  22
BRANCH  10  24
ATOM     24  O   UNL d   1      -3.878  -0.521  -7.093  0.00  0.00    -0.361 OA
ATOM     25  H   UNL d   1      -3.325  -0.269  -6.971  0.00  0.00     0.217 HD
ENDBRANCH  10  24
TORSDOF 5
ENDMDL
MODEL 4
REMARK VINA RESULT:    -9.915     43.712     44.665
REMARK INTER + INTRA:         -10.016
REMARK INTER:                 -11.901
REMARK INTRA:                   1.885
REMARK UNBOUND:                 1.928
REMARK  5 active torsions:
REMARK  status: ('A' for Active; 'I' for Inactive)
REMARK    1  A    between atoms: O_2  and  C_13 
REMARK    2  A    between atoms: O_3  and  C_19 
REMARK    3  A    between atoms: O_5  and  C_17 
REMARK    4  A    between atoms: O_6  and  C_21 
REMARK    5  A    between atoms: C_8  and  C_10 
ROOT
ATOM      1  O   UNL d   1      -8.061  -0.553  -8.074  0.00  0.00    -0.309 OA
ATOM      2  O   UNL d   1      -8.906  -0.672 -10.950  0.00  0.00    -0.287 OA
ATOM      3  C   UNL d   1      -9.298  -0.777  -9.266  0.00  0.00     0.081 A 
ATOM      4  C   UNL d   1      -7.388  -0.409  -8.799  0.00  0.00     0.090 A 
ATOM      5  C   UNL d   1      -9.016  -0.737  -8.308  0.00  0.00     0.095 A 
ATOM      6  C   UNL d   1      -8.624  -0.633  -9.992  0.00  0.00     0.190 A 
ATOM      7  C   UNL d   1      -7.670  -0.448  -9.758  0.00  0.00     0.094 A 
ATOM      8  C   UNL d   1     -10.288  -0.967  -9.525  0.00  0.00     0.085 A 
ATOM      9  C   UNL d   1      -9.706  -0.885  -7.541  0.00  0.00     0.075 A 
ATOM     10  C   UNL d   1     -10.702  -1.077  -7.777  0.00  0.00     0.071 A 
ATOM     11  C   UNL d   1     -10.995  -1.119  -8.775  0.00  0.00     0.074 A 
ENDROOT
BRANCH   4  12
ATOM     12  C   UNL d   1      -6.433  -0.224  -8.566  0.00  0.00     0.001 A 
ATOM     13  C   UNL d   1      -6.021   0.655  -8.804  0.00  0.00     0.054 A 
ATOM     14  C   UNL d   1      -5.066   0.839  -8.570  0.00  0.00     0.102 A 
ATOM     15  C   UNL d   1      -4.524   0.144  -8.099  0.00  0.00     0.099 A 
ATOM     16  C   UNL d   1      -4.936  -0.736  -7.861  0.00  0.00     0.040 A 
ATOM     17  C   UNL d   1      -5.891  -0.920  -8.094  0.00  0.00     0.017 A 
BRANCH  14  18
ATOM     18  O   UNL d   1      -4.654   1.718  -8.808  0.00  0.00    -0.353 OA
ATOM     19  C   UNL d   1      -5.175   2.388  -9.338  0.00  0.00     0.210 C 
ENDBRANCH  14  18
BRANCH  15  20
ATOM     20  O   UNL d   1      -3.569   0.328  -7.865  0.00  0.00    -0.358 OA
ATOM     21  H   UNL d   1      -3.285  -0.012  -7.431  0.00  0.00     0.217 HD
ENDBRANCH  15  20
ENDBRANCH   4  12
BRANCH   8  22
ATOM     22  O   UNL d   1     -10.558  -1.005 -10.487  0.00  0.00    -0.360 OA
ATOM     23  H   UNL d   1     -10.226  -0.704 -10.914  0.00  0.00     0.217 HD
ENDBRANCH   8  22
BRANCH  10  24
ATOM     24  O   UNL d   1     -11.372  -1.221  -7.048  0.00  0.00    -0.361 OA
ATOM     25  H   UNL d   1     -11.181  -1.338  -6.470  0.00  0.00     0.217 HD
ENDBRANCH  10  24
TORSDOF 5
ENDMDL
MODEL 5
REMARK VINA RESULT:    -9.896     44.196     45.130
REMARK INTER + INTRA:          -9.993
REMARK INTER:                 -11.863
REMARK INTRA:                   1.869
REMARK UNBOUND:                 1.928
REMARK  5 active torsions:
REMARK  status: ('A' for Active; 'I' for Inactive)
REMARK    1  A    between atoms: O_2  and  C_13 
REMARK    2  A    between atoms: O_3  and  C_19 
REMARK    3  A    between atoms: O_5  and  C_17 
REMARK    4  A    between atoms: O_6  and  C_21 
REMARK    5  A    between atoms: C_8  and  C_10 
ROOT
ATOM      1  O   UNL d   1      -7.723   0.195  -8.796  0.00  0.00    -0.309 OA
ATOM      2  O   UNL d   1      -7.661  -2.800  -8.627  0.00  0.00    -0.287 OA
ATOM      3  C   UNL d   1      -8.539  -1.310  -8.530  0.00  0.00     0.081 A 
ATOM      4  C   UNL d   1      -6.866  -0.297  -8.949  0.00  0.00     0.090 A 
ATOM      5  C   UNL d   1      -8.559  -0.311  -8.586  0.00  0.00     0.095 A 
ATOM      6  C   UNL d   1      -7.682  -1.802  -8.683  0.00  0.00     0.190 A 
ATOM      7  C   UNL d   1      -6.845  -1.295  -8.893  0.00  0.00     0.094 A 
ATOM      8  C   UNL d   1      -9.402  -1.850  -8.313  0.00  0.00     0.085 A 
ATOM      9  C   UNL d   1      -9.444   0.215  -8.429  0.00  0.00     0.075 A 
ATOM     10  C   UNL d   1     -10.320  -0.305  -8.211  0.00  0.00     0.071 A 
ATOM     11  C   UNL d   1     -10.298  -1.344  -8.152  0.00  0.00     0.074 A 
ENDROOT
BRANCH   4  12
ATOM     12  C   UNL d   1      -6.029   0.209  -9.159  0.00  0.00     0.001 A 
ATOM     13  C   UNL d   1      -5.677   0.228 -10.094  0.00  0.00     0.054 A 
ATOM     14  C   UNL d   1      -4.840   0.734 -10.304  0.00  0.00     0.102 A 
ATOM     15  C   UNL d   1      -4.356   1.221  -9.578  0.00  0.00     0.099 A 
ATOM     16  C   UNL d   1      -4.708   1.203  -8.642  0.00  0.00     0.040 A 
ATOM     17  C   UNL d   1      -5.544   0.697  -8.432  0.00  0.00     0.017 A 
BRANCH  14  18
ATOM     18  O   UNL d   1      -4.488   0.753 -11.240  0.00  0.00    -0.353 OA
ATOM     19  C   UNL d   1      -4.660  -0.018 -11.854  0.00  0.00     0.210 C 
ENDBRANCH  14  18
BRANCH  15  20
ATOM     20  O   UNL d   1      -3.519   1.728  -9.787  0.00  0.00    -0.358 OA
ATOM     21  H   UNL d   1      -3.212   1.615 -10.314  0.00  0.00     0.217 HD
ENDBRANCH  15  20
ENDBRANCH   4  12
BRANCH   8  22
ATOM     22  O   UNL d   1      -9.370  -2.848  -8.259  0.00  0.00    -0.360 OA
ATOM     23  H   UNL d   1      -9.585  -3.138  -7.755  0.00  0.00     0.217 HD
ENDBRANCH   8  22
BRANCH  10  24
ATOM     24  O   UNL d   1     -11.175   0.191  -8.058  0.00  0.00    -0.361 OA
ATOM     25  H   UNL d   1     -11.258   0.750  -8.313  0.00  0.00     0.217 HD
ENDBRANCH  10  24
TORSDOF 5
ENDMDL
