MODEL 1
REMARK VINA RESULT:    -8.973      0.000      0.000
REMARK INTER + INTRA:           0.303
REMARK INTER:                 -12.232
REMARK INTRA:                  12.535
REMARK UNBOUND:                12.423
REMARK  9 active torsions:
REMARK  status: ('A' for Active; 'I' for Inactive)
REMARK    1  A    between atoms: C_15  and  O_2 
REMARK    2  A    between atoms: O_2  and  C_17 
REMARK    3  A    between atoms: C_11  and  O_3 
REMARK    4  A    between atoms: C_12  and  O_4 
REMARK    5  A    between atoms: C_13  and  O_5 
REMARK    6  A    between atoms: O_8  and  C_23 
REMARK    7  A    between atoms: O_9  and  C_28 
REMARK    8  A    between atoms: O_10  and  C_31 
REMARK    9  A    between atoms: C_18  and  C_22 
ROOT
ATOM      1  O   UNL d   1      17.282  -6.842  -2.560  0.00  0.00    -0.306 OA
ATOM      2  O   UNL d   1      14.685  -8.233  -3.121  0.00  0.00    -0.284 OA
ATOM      3  C   UNL d   1      16.407  -8.152  -3.280  0.00  0.00     0.157 A 
ATOM      4  C   UNL d   1      17.273  -7.688  -3.093  0.00  0.00     0.123 A 
ATOM      5  C   UNL d   1      15.551  -7.769  -2.934  0.00  0.00     0.223 A 
ATOM      6  C   UNL d   1      15.560  -6.923  -2.401  0.00  0.00     0.084 A 
ATOM      7  C   UNL d   1      16.426  -6.459  -2.214  0.00  0.00     0.096 A 
ATOM      8  C   UNL d   1      14.659  -6.537  -2.048  0.00  0.00     0.085 A 
ATOM      9  C   UNL d   1      16.451  -5.577  -1.661  0.00  0.00     0.075 A 
ATOM     10  C   UNL d   1      14.661  -5.656  -1.492  0.00  0.00     0.074 A 
ATOM     11  C   UNL d   1      15.563  -5.172  -1.297  0.00  0.00     0.071 A 
ENDROOT
BRANCH   3  12
ATOM     12  O   UNL d   1      16.398  -8.998  -3.813  0.00  0.00    -0.311 OA
BRANCH  12  13
ATOM     13  C   UNL d   1      15.974  -9.014  -4.718  0.00  0.00     0.298 A 
ATOM     14  O   UNL d   1      16.041  -8.215  -5.316  0.00  0.00    -0.351 OA
ATOM     15  C   UNL d   1      15.616  -8.231  -6.222  0.00  0.00     0.152 A 
ATOM     16  C   UNL d   1      15.125  -9.046  -6.529  0.00  0.00     0.178 A 
ATOM     17  C   UNL d   1      15.684  -7.433  -6.820  0.00  0.00     0.042 C 
ATOM     18  C   UNL d   1      15.058  -9.845  -5.931  0.00  0.00     0.183 A 
ATOM     19  C   UNL d   1      15.482  -9.829  -5.026  0.00  0.00     0.205 A 
BRANCH  16  20
ATOM     20  O   UNL d   1      14.701  -9.062  -7.434  0.00  0.00    -0.390 OA
ATOM     21  H   UNL d   1      14.242  -8.667  -7.569  0.00  0.00     0.210 HD
ENDBRANCH  16  20
BRANCH  18  22
ATOM     22  O   UNL d   1      14.566 -10.660  -6.238  0.00  0.00    -0.390 OA
ATOM     23  H   UNL d   1      14.669 -11.206  -5.963  0.00  0.00     0.210 HD
ENDBRANCH  18  22
BRANCH  19  24
ATOM     24  O   UNL d   1      15.415 -10.627  -4.428  0.00  0.00    -0.388 OA
ATOM     25  H   UNL d   1      15.930 -10.890  -4.202  0.00  0.00     0.210 HD
ENDBRANCH  19  24
ENDBRANCH  12  13
ENDBRANCH   3  12
BRANCH   4  26
ATOM     26  C   UNL d   1      18.130  -8.070  -3.439  0.00  0.00     0.001 A 
ATOM     27  C   UNL d   1      18.583  -7.651  -4.226  0.00  0.00     0.017 A 
ATOM     28  C   UNL d   1      19.440  -8.033  -4.572  0.00  0.00     0.037 A 
ATOM     29  C   UNL d   1      19.844  -8.835  -4.131  0.00  0.00     0.065 A 
ATOM     30  C   UNL d   1      19.391  -9.254  -3.344  0.00  0.00     0.037 A 
ATOM     31  C   UNL d   1      18.534  -8.872  -2.998  0.00  0.00     0.017 A 
BRANCH  29  32
ATOM     32  O   UNL d   1      20.701  -9.217  -4.477  0.00  0.00    -0.361 OA
ATOM     33  H   UNL d   1      20.874  -9.789  -4.312  0.00  0.00     0.217 HD
ENDBRANCH  29  32
ENDBRANCH   4  26
BRANCH   8  34
ATOM     34  O   UNL d   1      13.799  -7.009  -2.241  0.00  0.00    -0.360 OA
ATOM     35  H   UNL d   1      13.258  -6.726  -2.129  0.00  0.00     0.217 HD
ENDBRANCH   8  34
BRANCH  11  36
ATOM     36  O   UNL d   1      15.576  -4.326  -0.764  0.00  0.00    -0.361 OA
ATOM     37  H   UNL d   1      15.244  -4.284  -0.242  0.00  0.00     0.217 HD
ENDBRANCH  11  36
TORSDOF 9
ENDMDL
MODEL 2
REMARK VINA RESULT:    -8.839     55.561     58.989
REMARK INTER + INTRA:           0.484
REMARK INTER:                 -12.368
REMARK INTRA:                  12.852
REMARK UNBOUND:                12.423
REMARK  9 active torsions:
REMARK  status: ('A' for Active; 'I' for Inactive)
REMARK    1  A    between atoms: C_15  and  O_2 
REMARK    2  A    between atoms: O_2  and  C_17 
REMARK    3  A    between atoms: C_11  and  O_3 
REMARK    4  A    between atoms: C_12  and  O_4 
REMARK    5  A    between atoms: C_13  and  O_5 
REMARK    6  A    between atoms: O_8  and  C_23 
REMARK    7  A    between atoms: O_9  and  C_28 
REMARK    8  A    between atoms: O_10  and  C_31 
REMARK    9  A    between atoms: C_18  and  C_22 
ROOT
ATOM      1  O   UNL d   1     -27.928  20.854  26.037  0.00  0.00    -0.306 OA
ATOM      2  O   UNL d   1     -27.981  18.395  24.320  0.00  0.00    -0.284 OA
ATOM      3  C   UNL d   1     -27.197  19.854  24.826  0.00  0.00     0.157 A 
ATOM      4  C   UNL d   1     -27.180  20.674  25.399  0.00  0.00     0.123 A 
ATOM      5  C   UNL d   1     -27.963  19.215  24.892  0.00  0.00     0.223 A 
ATOM      6  C   UNL d   1     -28.712  19.395  25.531  0.00  0.00     0.084 A 
ATOM      7  C   UNL d   1     -28.694  20.215  26.103  0.00  0.00     0.096 A 
ATOM      8  C   UNL d   1     -29.503  18.720  25.588  0.00  0.00     0.085 A 
ATOM      9  C   UNL d   1     -29.466  20.416  26.773  0.00  0.00     0.075 A 
ATOM     10  C   UNL d   1     -30.286  18.901  26.251  0.00  0.00     0.074 A 
ATOM     11  C   UNL d   1     -30.268  19.755  26.848  0.00  0.00     0.071 A 
ENDROOT
BRANCH   3  12
ATOM     12  O   UNL d   1     -26.449  19.674  24.188  0.00  0.00    -0.311 OA
BRANCH  12  13
ATOM     13  C   UNL d   1     -25.735  19.016  24.427  0.00  0.00     0.298 A 
ATOM     14  O   UNL d   1     -25.634  18.711  25.374  0.00  0.00    -0.351 OA
ATOM     15  C   UNL d   1     -24.920  18.053  25.613  0.00  0.00     0.152 A 
ATOM     16  C   UNL d   1     -24.307  17.701  24.906  0.00  0.00     0.178 A 
ATOM     17  C   UNL d   1     -24.819  17.747  26.560  0.00  0.00     0.042 C 
ATOM     18  C   UNL d   1     -24.408  18.006  23.959  0.00  0.00     0.183 A 
ATOM     19  C   UNL d   1     -25.122  18.664  23.720  0.00  0.00     0.205 A 
BRANCH  16  20
ATOM     20  O   UNL d   1     -23.593  17.043  25.146  0.00  0.00    -0.390 OA
ATOM     21  H   UNL d   1     -23.074  17.012  24.808  0.00  0.00     0.210 HD
ENDBRANCH  16  20
BRANCH  18  22
ATOM     22  O   UNL d   1     -23.795  17.654  23.252  0.00  0.00    -0.390 OA
ATOM     23  H   UNL d   1     -23.955  17.153  22.925  0.00  0.00     0.210 HD
ENDBRANCH  18  22
BRANCH  19  24
ATOM     24  O   UNL d   1     -25.223  18.970  22.773  0.00  0.00    -0.388 OA
ATOM     25  H   UNL d   1     -24.753  19.257  22.488  0.00  0.00     0.210 HD
ENDBRANCH  19  24
ENDBRANCH  12  13
ENDBRANCH   3  12
BRANCH   4  26
ATOM     26  C   UNL d   1     -26.414  21.314  25.333  0.00  0.00     0.001 A 
ATOM     27  C   UNL d   1     -25.769  21.402  26.092  0.00  0.00     0.017 A 
ATOM     28  C   UNL d   1     -25.003  22.041  26.026  0.00  0.00     0.037 A 
ATOM     29  C   UNL d   1     -24.882  22.593  25.200  0.00  0.00     0.065 A 
ATOM     30  C   UNL d   1     -25.527  22.504  24.441  0.00  0.00     0.037 A 
ATOM     31  C   UNL d   1     -26.292  21.865  24.507  0.00  0.00     0.017 A 
BRANCH  29  32
ATOM     32  O   UNL d   1     -24.116  23.232  25.134  0.00  0.00    -0.361 OA
ATOM     33  H   UNL d   1     -23.989  23.613  25.607  0.00  0.00     0.217 HD
ENDBRANCH  29  32
ENDBRANCH   4  26
BRANCH   8  34
ATOM     34  O   UNL d   1     -29.510  17.903  25.011  0.00  0.00    -0.360 OA
ATOM     35  H   UNL d   1     -29.699  17.942  24.421  0.00  0.00     0.217 HD
ENDBRANCH   8  34
BRANCH  11  36
ATOM     36  O   UNL d   1     -31.014  19.939  27.487  0.00  0.00    -0.361 OA
ATOM     37  H   UNL d   1     -31.136  20.521  27.662  0.00  0.00     0.217 HD
ENDBRANCH  11  36
TORSDOF 9
ENDMDL
MODEL 3
REMARK VINA RESULT:    -8.803     64.268     67.324
REMARK INTER + INTRA:           0.532
REMARK INTER:                 -12.351
REMARK INTRA:                  12.884
REMARK UNBOUND:                12.423
REMARK  9 active torsions:
REMARK  status: ('A' for Active; 'I' for Inactive)
REMARK    1  A    between atoms: C_15  and  O_2 
REMARK    2  A    between atoms: O_2  and  C_17 
REMARK    3  A    between atoms: C_11  and  O_3 
REMARK    4  A    between atoms: C_12  and  O_4 
REMARK    5  A    between atoms: C_13  and  O_5 
REMARK    6  A    between atoms: O_8  and  C_23 
REMARK    7  A    between atoms: O_9  and  C_28 
REMARK    8  A    between atoms: O_10  and  C_31 
REMARK    9  A    between atoms: C_18  and  C_22 
ROOT
ATOM      1  O   UNL d   1     -33.904  28.479  22.409  0.00  0.00    -0.306 OA
ATOM      2  O   UNL d   1     -34.249  28.856  25.365  0.00  0.00    -0.284 OA
ATOM      3  C   UNL d   1     -33.217  28.644  23.990  0.00  0.00     0.157 A 
ATOM      4  C   UNL d   1     -33.102  28.518  23.005  0.00  0.00     0.123 A 
ATOM      5  C   UNL d   1     -34.134  28.730  24.380  0.00  0.00     0.223 A 
ATOM      6  C   UNL d   1     -34.936  28.691  23.784  0.00  0.00     0.084 A 
ATOM      7  C   UNL d   1     -34.821  28.565  22.798  0.00  0.00     0.096 A 
ATOM      8  C   UNL d   1     -35.885  28.783  24.204  0.00  0.00     0.085 A 
ATOM      9  C   UNL d   1     -35.647  28.522  22.164  0.00  0.00     0.075 A 
ATOM     10  C   UNL d   1     -36.725  28.743  23.589  0.00  0.00     0.074 A 
ATOM     11  C   UNL d   1     -36.605  28.612  22.563  0.00  0.00     0.071 A 
ENDROOT
BRANCH   3  12
ATOM     12  O   UNL d   1     -32.415  28.683  24.586  0.00  0.00    -0.311 OA
BRANCH  12  13
ATOM     13  C   UNL d   1     -32.192  27.907  25.176  0.00  0.00     0.298 A 
ATOM     14  O   UNL d   1     -32.762  27.085  25.158  0.00  0.00    -0.351 OA
ATOM     15  C   UNL d   1     -32.539  26.309  25.748  0.00  0.00     0.152 A 
ATOM     16  C   UNL d   1     -31.746  26.355  26.356  0.00  0.00     0.178 A 
ATOM     17  C   UNL d   1     -33.109  25.488  25.731  0.00  0.00     0.042 C 
ATOM     18  C   UNL d   1     -31.176  27.176  26.374  0.00  0.00     0.183 A 
ATOM     19  C   UNL d   1     -31.399  27.952  25.784  0.00  0.00     0.205 A 
BRANCH  16  20
ATOM     20  O   UNL d   1     -31.523  25.579  26.946  0.00  0.00    -0.390 OA
ATOM     21  H   UNL d   1     -31.884  25.445  27.432  0.00  0.00     0.210 HD
ENDBRANCH  16  20
BRANCH  18  22
ATOM     22  O   UNL d   1     -30.383  27.222  26.982  0.00  0.00    -0.390 OA
ATOM     23  H   UNL d   1     -30.167  26.705  27.248  0.00  0.00     0.210 HD
ENDBRANCH  18  22
BRANCH  19  24
ATOM     24  O   UNL d   1     -30.829  28.774  25.802  0.00  0.00    -0.388 OA
ATOM     25  H   UNL d   1     -30.884  29.199  25.354  0.00  0.00     0.210 HD
ENDBRANCH  19  24
ENDBRANCH  12  13
ENDBRANCH   3  12
BRANCH   4  26
ATOM     26  C   UNL d   1     -32.185  28.431  22.615  0.00  0.00     0.001 A 
ATOM     27  C   UNL d   1     -31.873  27.549  22.262  0.00  0.00     0.017 A 
ATOM     28  C   UNL d   1     -30.956  27.463  21.873  0.00  0.00     0.037 A 
ATOM     29  C   UNL d   1     -30.351  28.258  21.837  0.00  0.00     0.065 A 
ATOM     30  C   UNL d   1     -30.663  29.140  22.190  0.00  0.00     0.037 A 
ATOM     31  C   UNL d   1     -31.580  29.227  22.579  0.00  0.00     0.017 A 
BRANCH  29  32
ATOM     32  O   UNL d   1     -29.434  28.172  21.447  0.00  0.00    -0.361 OA
ATOM     33  H   UNL d   1     -29.057  27.718  21.639  0.00  0.00     0.217 HD
ENDBRANCH  29  32
ENDBRANCH   4  26
BRANCH   8  34
ATOM     34  O   UNL d   1     -35.988  28.908  25.190  0.00  0.00    -0.360 OA
ATOM     35  H   UNL d   1     -36.387  28.554  25.508  0.00  0.00     0.217 HD
ENDBRANCH   8  34
BRANCH  11  36
ATOM     36  O   UNL d   1     -37.405  28.572  21.963  0.00  0.00    -0.361 OA
ATOM     37  H   UNL d   1     -37.590  28.028  21.729  0.00  0.00     0.217 HD
ENDBRANCH  11  36
TORSDOF 9
ENDMDL
MODEL 4
REMARK VINA RESULT:    -8.545      1.777      4.561
REMARK INTER + INTRA:           0.881
REMARK INTER:                 -11.642
REMARK INTRA:                  12.523
REMARK UNBOUND:                12.423
REMARK  9 active torsions:
REMARK  status: ('A' for Active; 'I' for Inactive)
REMARK    1  A    between atoms: C_15  and  O_2 
REMARK    2  A    between atoms: O_2  and  C_17 
REMARK    3  A    between atoms: C_11  and  O_3 
REMARK    4  A    between atoms: C_12  and  O_4 
REMARK    5  A    between atoms: C_13  and  O_5 
REMARK    6  A    between atoms: O_8  and  C_23 
REMARK    7  A    between atoms: O_9  and  C_28 
REMARK    8  A    between atoms: O_10  and  C_31 
REMARK    9  A    between atoms: C_18  and  C_22 
ROOT
ATOM      1  O   UNL d   1      15.301  -8.160  -5.548  0.00  0.00    -0.306 OA
ATOM      2  O   UNL d   1      15.542  -9.151  -2.727  0.00  0.00    -0.284 OA
ATOM      3  C   UNL d   1      16.187  -8.258  -4.063  0.00  0.00     0.157 A 
ATOM      4  C   UNL d   1      16.107  -7.928  -5.004  0.00  0.00     0.123 A 
ATOM      5  C   UNL d   1      15.462  -8.820  -3.667  0.00  0.00     0.223 A 
ATOM      6  C   UNL d   1      14.655  -9.052  -4.211  0.00  0.00     0.084 A 
ATOM      7  C   UNL d   1      14.575  -8.722  -5.152  0.00  0.00     0.096 A 
ATOM      8  C   UNL d   1      13.907  -9.638  -3.785  0.00  0.00     0.085 A 
ATOM      9  C   UNL d   1      13.740  -8.955  -5.731  0.00  0.00     0.075 A 
ATOM     10  C   UNL d   1      13.064  -9.884  -4.346  0.00  0.00     0.074 A 
ATOM     11  C   UNL d   1      12.980  -9.540  -5.325  0.00  0.00     0.071 A 
ENDROOT
BRANCH   3  12
ATOM     12  O   UNL d   1      16.994  -8.027  -3.519  0.00  0.00    -0.311 OA
BRANCH  12  13
ATOM     13  C   UNL d   1      16.911  -7.400  -2.744  0.00  0.00     0.298 A 
ATOM     14  O   UNL d   1      16.096  -6.830  -2.647  0.00  0.00    -0.351 OA
ATOM     15  C   UNL d   1      16.013  -6.203  -1.872  0.00  0.00     0.152 A 
ATOM     16  C   UNL d   1      16.745  -6.148  -1.193  0.00  0.00     0.178 A 
ATOM     17  C   UNL d   1      15.197  -5.632  -1.776  0.00  0.00     0.042 C 
ATOM     18  C   UNL d   1      17.560  -6.719  -1.290  0.00  0.00     0.183 A 
ATOM     19  C   UNL d   1      17.643  -7.345  -2.065  0.00  0.00     0.205 A 
BRANCH  16  20
ATOM     20  O   UNL d   1      16.662  -5.522  -0.418  0.00  0.00    -0.390 OA
ATOM     21  H   UNL d   1      17.143  -5.436  -0.037  0.00  0.00     0.210 HD
ENDBRANCH  16  20
BRANCH  18  22
ATOM     22  O   UNL d   1      18.292  -6.664  -0.611  0.00  0.00    -0.390 OA
ATOM     23  H   UNL d   1      18.862  -6.490  -0.783  0.00  0.00     0.210 HD
ENDBRANCH  18  22
BRANCH  19  24
ATOM     24  O   UNL d   1      18.458  -7.916  -2.162  0.00  0.00    -0.388 OA
ATOM     25  H   UNL d   1      18.851  -7.980  -1.686  0.00  0.00     0.210 HD
ENDBRANCH  19  24
ENDBRANCH  12  13
ENDBRANCH   3  12
BRANCH   4  26
ATOM     26  C   UNL d   1      16.833  -7.366  -5.400  0.00  0.00     0.001 A 
ATOM     27  C   UNL d   1      17.710  -7.780  -5.644  0.00  0.00     0.017 A 
ATOM     28  C   UNL d   1      18.436  -7.218  -6.041  0.00  0.00     0.037 A 
ATOM     29  C   UNL d   1      18.285  -6.242  -6.193  0.00  0.00     0.065 A 
ATOM     30  C   UNL d   1      17.408  -5.827  -5.948  0.00  0.00     0.037 A 
ATOM     31  C   UNL d   1      16.682  -6.389  -5.552  0.00  0.00     0.017 A 
BRANCH  29  32
ATOM     32  O   UNL d   1      19.011  -5.680  -6.589  0.00  0.00    -0.361 OA
ATOM     33  H   UNL d   1      19.272  -5.229  -6.253  0.00  0.00     0.217 HD
ENDBRANCH  29  32
ENDBRANCH   4  26
BRANCH   8  34
ATOM     34  O   UNL d   1      13.998  -9.963  -2.844  0.00  0.00    -0.360 OA
ATOM     35  H   UNL d   1      14.364 -10.448  -2.717  0.00  0.00     0.217 HD
ENDBRANCH   8  34
BRANCH  11  36
ATOM     36  O   UNL d   1      12.175  -9.770  -5.873  0.00  0.00    -0.361 OA
ATOM     37  H   UNL d   1      11.666  -9.992  -5.597  0.00  0.00     0.217 HD
ENDBRANCH  11  36
TORSDOF 9
ENDMDL
MODEL 5
REMARK VINA RESULT:    -8.515     32.561     34.803
REMARK INTER + INTRA:           0.921
REMARK INTER:                 -11.568
REMARK INTRA:                  12.490
REMARK UNBOUND:                12.423
REMARK  9 active torsions:
REMARK  status: ('A' for Active; 'I' for Inactive)
REMARK    1  A    between atoms: C_15  and  O_2 
REMARK    2  A    between atoms: O_2  and  C_17 
REMARK    3  A    between atoms: C_11  and  O_3 
REMARK    4  A    between atoms: C_12  and  O_4 
REMARK    5  A    between atoms: C_13  and  O_5 
REMARK    6  A    between atoms: O_8  and  C_23 
REMARK    7  A    between atoms: O_9  and  C_28 
REMARK    8  A    between atoms: O_10  and  C_31 
REMARK    9  A    between atoms: C_18  and  C_22 
ROOT
ATOM      1  O   UNL d   1     -12.303   8.296 -12.088  0.00  0.00    -0.306 OA
ATOM      2  O   UNL d   1     -12.803   8.892  -9.190  0.00  0.00    -0.284 OA
ATOM      3  C   UNL d   1     -13.398   8.440 -10.753  0.00  0.00     0.157 A 
ATOM      4  C   UNL d   1     -13.231   8.242 -11.719  0.00  0.00     0.123 A 
ATOM      5  C   UNL d   1     -12.636   8.693 -10.156  0.00  0.00     0.223 A 
ATOM      6  C   UNL d   1     -11.708   8.748 -10.525  0.00  0.00     0.084 A 
ATOM      7  C   UNL d   1     -11.542   8.549 -11.491  0.00  0.00     0.096 A 
ATOM      8  C   UNL d   1     -10.925   9.013  -9.891  0.00  0.00     0.085 A 
ATOM      9  C   UNL d   1     -10.581   8.602 -11.890  0.00  0.00     0.075 A 
ATOM     10  C   UNL d   1      -9.956   9.072 -10.268  0.00  0.00     0.074 A 
ATOM     11  C   UNL d   1      -9.782   8.865 -11.274  0.00  0.00     0.071 A 
ENDROOT
BRANCH   3  12
ATOM     12  O   UNL d   1     -14.325   8.386 -10.384  0.00  0.00    -0.311 OA
BRANCH  12  13
ATOM     13  C   UNL d   1     -14.571   7.648  -9.756  0.00  0.00     0.298 A 
ATOM     14  O   UNL d   1     -14.023   6.812  -9.727  0.00  0.00    -0.351 OA
ATOM     15  C   UNL d   1     -14.269   6.074  -9.099  0.00  0.00     0.152 A 
ATOM     16  C   UNL d   1     -15.062   6.172  -8.498  0.00  0.00     0.178 A 
ATOM     17  C   UNL d   1     -13.721   5.238  -9.071  0.00  0.00     0.042 C 
ATOM     18  C   UNL d   1     -15.610   7.008  -8.526  0.00  0.00     0.183 A 
ATOM     19  C   UNL d   1     -15.365   7.746  -9.155  0.00  0.00     0.205 A 
BRANCH  16  20
ATOM     20  O   UNL d   1     -15.308   5.434  -7.870  0.00  0.00    -0.390 OA
ATOM     21  H   UNL d   1     -14.929   4.949  -7.798  0.00  0.00     0.210 HD
ENDBRANCH  16  20
BRANCH  18  22
ATOM     22  O   UNL d   1     -16.404   7.106  -7.926  0.00  0.00    -0.390 OA
ATOM     23  H   UNL d   1     -16.355   6.969  -7.323  0.00  0.00     0.210 HD
ENDBRANCH  18  22
BRANCH  19  24
ATOM     24  O   UNL d   1     -15.913   8.582  -9.183  0.00  0.00    -0.388 OA
ATOM     25  H   UNL d   1     -16.141   8.785  -9.723  0.00  0.00     0.210 HD
ENDBRANCH  19  24
ENDBRANCH  12  13
ENDBRANCH   3  12
BRANCH   4  26
ATOM     26  C   UNL d   1     -13.992   7.989 -12.316  0.00  0.00     0.001 A 
ATOM     27  C   UNL d   1     -14.697   8.662 -12.540  0.00  0.00     0.017 A 
ATOM     28  C   UNL d   1     -15.458   8.409 -13.137  0.00  0.00     0.037 A 
ATOM     29  C   UNL d   1     -15.515   7.483 -13.510  0.00  0.00     0.065 A 
ATOM     30  C   UNL d   1     -14.811   6.810 -13.286  0.00  0.00     0.037 A 
ATOM     31  C   UNL d   1     -14.049   7.063 -12.689  0.00  0.00     0.017 A 
BRANCH  29  32
ATOM     32  O   UNL d   1     -16.276   7.230 -14.107  0.00  0.00    -0.361 OA
ATOM     33  H   UNL d   1     -16.841   7.464 -14.005  0.00  0.00     0.217 HD
ENDBRANCH  29  32
ENDBRANCH   4  26
BRANCH   8  34
ATOM     34  O   UNL d   1     -11.103   9.209  -8.927  0.00  0.00    -0.360 OA
ATOM     35  H   UNL d   1     -11.007   9.780  -8.704  0.00  0.00     0.217 HD
ENDBRANCH   8  34
BRANCH  11  36
ATOM     36  O   UNL d   1      -8.856   8.918 -11.647  0.00  0.00    -0.361 OA
ATOM     37  H   UNL d   1      -8.748   9.245 -12.163  0.00  0.00     0.217 HD
ENDBRANCH  11  36
TORSDOF 9
ENDMDL
