MODEL 1
REMARK VINA RESULT:    -7.099      0.000      0.000
REMARK INTER + INTRA:          -8.017
REMARK INTER:                  -9.005
REMARK INTRA:                   0.988
REMARK UNBOUND:                 0.950
REMARK  6 active torsions:
REMARK  status: ('A' for Active; 'I' for Inactive)
REMARK    1  A    between atoms: O_1  and  C_8 
REMARK    2  A    between atoms: O_2  and  C_9 
REMARK    3  A    between atoms: O_3  and  C_13 
REMARK    4  A    between atoms: C_5  and  C_11 
REMARK    5  A    between atoms: C_11  and  C_12 
REMARK    6  A    between atoms: C_12  and  C_13 
ROOT
ATOM      1  C   UNL d   1       9.980  -0.798  -6.209  0.00  0.00    -0.033 A 
ATOM      2  C   UNL d   1       9.222  -0.846  -6.861  0.00  0.00     0.050 A 
ATOM      3  C   UNL d   1      10.227  -1.604  -5.670  0.00  0.00     0.014 A 
ATOM      4  C   UNL d   1       8.712  -1.698  -6.973  0.00  0.00     0.099 A 
ATOM      5  C   UNL d   1       8.959  -2.504  -6.434  0.00  0.00     0.098 A 
ATOM      6  C   UNL d   1       9.716  -2.456  -5.782  0.00  0.00     0.040 A 
ENDROOT
BRANCH   1   7
ATOM      7  C   UNL d   1      10.490   0.054  -6.097  0.00  0.00     0.018 C 
BRANCH   7   8
ATOM      8  C   UNL d   1      10.374   0.601  -5.268  0.00  0.00     0.082 C 
BRANCH   8   9
ATOM      9  C   UNL d   1      10.962   1.393  -5.105  0.00  0.00     0.165 C 
ATOM     10  O   UNL d   1      11.759   1.309  -4.507  0.00  0.00    -0.647 OA
BRANCH   9  11
ATOM     11  O   UNL d   1      10.754   2.269  -5.540  0.00  0.00    -0.773 OA
ATOM     12  H   UNL d   1      10.844   2.342  -6.149  0.00  0.00     0.167 HD
ENDBRANCH   9  11
ENDBRANCH   8   9
ENDBRANCH   7   8
ENDBRANCH   1   7
BRANCH   4  13
ATOM     13  O   UNL d   1       7.955  -1.746  -7.624  0.00  0.00    -0.358 OA
ATOM     14  H   UNL d   1       7.668  -1.227  -7.805  0.00  0.00     0.217 HD
ENDBRANCH   4  13
BRANCH   5  15
ATOM     15  O   UNL d   1       8.449  -3.356  -6.546  0.00  0.00    -0.358 OA
ATOM     16  H   UNL d   1       8.165  -3.479  -7.083  0.00  0.00     0.217 HD
ENDBRANCH   5  15
TORSDOF 6
ENDMDL
MODEL 2
REMARK VINA RESULT:    -7.049      0.989      4.099
REMARK INTER + INTRA:          -7.953
REMARK INTER:                  -8.963
REMARK INTRA:                   1.009
REMARK UNBOUND:                 0.950
REMARK  6 active torsions:
REMARK  status: ('A' for Active; 'I' for Inactive)
REMARK    1  A    between atoms: O_1  and  C_8 
REMARK    2  A    between atoms: O_2  and  C_9 
REMARK    3  A    between atoms: O_3  and  C_13 
REMARK    4  A    between atoms: C_5  and  C_11 
REMARK    5  A    between atoms: C_11  and  C_12 
REMARK    6  A    between atoms: C_12  and  C_13 
ROOT
ATOM      1  C   UNL d   1      10.488  -0.380  -5.462  0.00  0.00    -0.033 A 
ATOM      2  C   UNL d   1       9.763   0.211  -5.110  0.00  0.00     0.050 A 
ATOM      3  C   UNL d   1      11.418  -0.026  -5.564  0.00  0.00     0.014 A 
ATOM      4  C   UNL d   1       9.967   1.157  -4.859  0.00  0.00     0.099 A 
ATOM      5  C   UNL d   1      10.897   1.512  -4.960  0.00  0.00     0.098 A 
ATOM      6  C   UNL d   1      11.622   0.920  -5.313  0.00  0.00     0.040 A 
ENDROOT
BRANCH   1   7
ATOM      7  C   UNL d   1      10.283  -1.327  -5.713  0.00  0.00     0.018 C 
BRANCH   7   8
ATOM      8  C   UNL d   1       9.511  -1.528  -6.316  0.00  0.00     0.082 C 
BRANCH   8   9
ATOM      9  C   UNL d   1       9.372  -2.458  -6.657  0.00  0.00     0.165 C 
ATOM     10  O   UNL d   1       8.648  -3.029  -6.271  0.00  0.00    -0.647 OA
BRANCH   9  11
ATOM     11  O   UNL d   1       9.958  -2.816  -7.384  0.00  0.00    -0.773 OA
ATOM     12  H   UNL d   1       9.742  -2.860  -7.963  0.00  0.00     0.167 HD
ENDBRANCH   9  11
ENDBRANCH   8   9
ENDBRANCH   7   8
ENDBRANCH   1   7
BRANCH   4  13
ATOM     13  O   UNL d   1       9.242   1.749  -4.506  0.00  0.00    -0.358 OA
ATOM     14  H   UNL d   1       9.265   2.360  -4.608  0.00  0.00     0.217 HD
ENDBRANCH   4  13
BRANCH   5  15
ATOM     15  O   UNL d   1      11.102   2.458  -4.709  0.00  0.00    -0.358 OA
ATOM     16  H   UNL d   1      11.494   2.792  -5.053  0.00  0.00     0.217 HD
ENDBRANCH   5  15
TORSDOF 6
ENDMDL
MODEL 3
REMARK VINA RESULT:    -6.918     14.794     15.891
REMARK INTER + INTRA:          -7.788
REMARK INTER:                  -8.728
REMARK INTRA:                   0.941
REMARK UNBOUND:                 0.950
REMARK  6 active torsions:
REMARK  status: ('A' for Active; 'I' for Inactive)
REMARK    1  A    between atoms: O_1  and  C_8 
REMARK    2  A    between atoms: O_2  and  C_9 
REMARK    3  A    between atoms: O_3  and  C_13 
REMARK    4  A    between atoms: C_5  and  C_11 
REMARK    5  A    between atoms: C_11  and  C_12 
REMARK    6  A    between atoms: C_12  and  C_13 
ROOT
ATOM      1  C   UNL d   1      -5.032  -0.587  -9.642  0.00  0.00    -0.033 A 
ATOM      2  C   UNL d   1      -4.621   0.310  -9.477  0.00  0.00     0.050 A 
ATOM      3  C   UNL d   1      -5.056  -0.963 -10.568  0.00  0.00     0.014 A 
ATOM      4  C   UNL d   1      -4.234   0.830 -10.238  0.00  0.00     0.099 A 
ATOM      5  C   UNL d   1      -4.258   0.454 -11.165  0.00  0.00     0.098 A 
ATOM      6  C   UNL d   1      -4.669  -0.443 -11.329  0.00  0.00     0.040 A 
ENDROOT
BRANCH   1   7
ATOM      7  C   UNL d   1      -5.419  -1.107  -8.881  0.00  0.00     0.018 C 
BRANCH   7   8
ATOM      8  C   UNL d   1      -6.382  -0.992  -8.634  0.00  0.00     0.082 C 
BRANCH   8   9
ATOM      9  C   UNL d   1      -6.792  -1.575  -7.933  0.00  0.00     0.165 C 
ATOM     10  O   UNL d   1      -7.476  -2.258  -8.188  0.00  0.00    -0.647 OA
BRANCH   9  11
ATOM     11  O   UNL d   1      -6.517  -1.475  -6.977  0.00  0.00    -0.773 OA
ATOM     12  H   UNL d   1      -6.943  -1.351  -6.543  0.00  0.00     0.167 HD
ENDBRANCH   9  11
ENDBRANCH   8   9
ENDBRANCH   7   8
ENDBRANCH   1   7
BRANCH   4  13
ATOM     13  O   UNL d   1      -3.823   1.727 -10.074  0.00  0.00    -0.358 OA
ATOM     14  H   UNL d   1      -3.550   1.847  -9.530  0.00  0.00     0.217 HD
ENDBRANCH   4  13
BRANCH   5  15
ATOM     15  O   UNL d   1      -3.871   0.974 -11.926  0.00  0.00    -0.358 OA
ATOM     16  H   UNL d   1      -3.263   1.093 -11.942  0.00  0.00     0.217 HD
ENDBRANCH   5  15
TORSDOF 6
ENDMDL
MODEL 4
REMARK VINA RESULT:    -6.777     14.966     16.294
REMARK INTER + INTRA:          -7.610
REMARK INTER:                  -8.623
REMARK INTRA:                   1.014
REMARK UNBOUND:                 0.950
REMARK  6 active torsions:
REMARK  status: ('A' for Active; 'I' for Inactive)
REMARK    1  A    between atoms: O_1  and  C_8 
REMARK    2  A    between atoms: O_2  and  C_9 
REMARK    3  A    between atoms: O_3  and  C_13 
REMARK    4  A    between atoms: C_5  and  C_11 
REMARK    5  A    between atoms: C_11  and  C_12 
REMARK    6  A    between atoms: C_12  and  C_13 
ROOT
ATOM      1  C   UNL d   1      -6.405  -0.861  -8.215  0.00  0.00    -0.033 A 
ATOM      2  C   UNL d   1      -6.996  -0.763  -9.016  0.00  0.00     0.050 A 
ATOM      3  C   UNL d   1      -6.558  -1.608  -7.568  0.00  0.00     0.014 A 
ATOM      4  C   UNL d   1      -7.740  -1.413  -9.170  0.00  0.00     0.099 A 
ATOM      5  C   UNL d   1      -7.893  -2.160  -8.523  0.00  0.00     0.098 A 
ATOM      6  C   UNL d   1      -7.302  -2.258  -7.722  0.00  0.00     0.040 A 
ENDROOT
BRANCH   1   7
ATOM      7  C   UNL d   1      -5.660  -0.211  -8.061  0.00  0.00     0.018 C 
BRANCH   7   8
ATOM      8  C   UNL d   1      -4.710  -0.519  -8.105  0.00  0.00     0.082 C 
BRANCH   8   9
ATOM      9  C   UNL d   1      -3.966   0.130  -7.948  0.00  0.00     0.165 C 
ATOM     10  O   UNL d   1      -3.955   1.005  -8.432  0.00  0.00    -0.647 OA
BRANCH   9  11
ATOM     11  O   UNL d   1      -3.233  -0.095  -7.306  0.00  0.00    -0.773 OA
ATOM     12  H   UNL d   1      -2.677  -0.269  -7.519  0.00  0.00     0.167 HD
ENDBRANCH   9  11
ENDBRANCH   8   9
ENDBRANCH   7   8
ENDBRANCH   1   7
BRANCH   4  13
ATOM     13  O   UNL d   1      -8.331  -1.316  -9.971  0.00  0.00    -0.358 OA
ATOM     14  H   UNL d   1      -8.923  -1.147  -9.900  0.00  0.00     0.217 HD
ENDBRANCH   4  13
BRANCH   5  15
ATOM     15  O   UNL d   1      -8.637  -2.810  -8.678  0.00  0.00    -0.358 OA
ATOM     16  H   UNL d   1      -8.738  -3.268  -8.272  0.00  0.00     0.217 HD
ENDBRANCH   5  15
TORSDOF 6
ENDMDL
MODEL 5
REMARK VINA RESULT:    -6.744     50.334     51.046
REMARK INTER + INTRA:          -7.569
REMARK INTER:                  -8.565
REMARK INTRA:                   0.996
REMARK UNBOUND:                 0.950
REMARK  6 active torsions:
REMARK  status: ('A' for Active; 'I' for Inactive)
REMARK    1  A    between atoms: O_1  and  C_8 
REMARK    2  A    between atoms: O_2  and  C_9 
REMARK    3  A    between atoms: O_3  and  C_13 
REMARK    4  A    between atoms: C_5  and  C_11 
REMARK    5  A    between atoms: C_11  and  C_12 
REMARK    6  A    between atoms: C_12  and  C_13 
ROOT
ATOM      1  C   UNL d   1     -24.844  18.809  25.655  0.00  0.00    -0.033 A 
ATOM      2  C   UNL d   1     -24.751  18.714  24.664  0.00  0.00     0.050 A 
ATOM      3  C   UNL d   1     -24.380  19.556  26.131  0.00  0.00     0.014 A 
ATOM      4  C   UNL d   1     -24.193  19.365  24.149  0.00  0.00     0.099 A 
ATOM      5  C   UNL d   1     -23.729  20.111  24.625  0.00  0.00     0.098 A 
ATOM      6  C   UNL d   1     -23.822  20.207  25.616  0.00  0.00     0.040 A 
ENDROOT
BRANCH   1   7
ATOM      7  C   UNL d   1     -25.402  18.158  26.169  0.00  0.00     0.018 C 
BRANCH   7   8
ATOM      8  C   UNL d   1     -26.389  18.297  26.248  0.00  0.00     0.082 C 
BRANCH   8   9
ATOM      9  C   UNL d   1     -26.980  17.541  26.529  0.00  0.00     0.165 C 
ATOM     10  O   UNL d   1     -27.709  17.224  25.922  0.00  0.00    -0.647 OA
BRANCH   9  11
ATOM     11  O   UNL d   1     -26.842  17.102  27.416  0.00  0.00    -0.773 OA
ATOM     12  H   UNL d   1     -26.479  17.370  27.842  0.00  0.00     0.167 HD
ENDBRANCH   9  11
ENDBRANCH   8   9
ENDBRANCH   7   8
ENDBRANCH   1   7
BRANCH   4  13
ATOM     13  O   UNL d   1     -24.099  19.269  23.158  0.00  0.00    -0.358 OA
ATOM     14  H   UNL d   1     -24.604  19.205  22.803  0.00  0.00     0.217 HD
ENDBRANCH   4  13
BRANCH   5  15
ATOM     15  O   UNL d   1     -23.171  20.763  24.110  0.00  0.00    -0.358 OA
ATOM     16  H   UNL d   1     -23.304  21.368  24.130  0.00  0.00     0.217 HD
ENDBRANCH   5  15
TORSDOF 6
ENDMDL
