MODEL 1
REMARK VINA RESULT:    -6.768      0.000      0.000
REMARK INTER + INTRA:          -7.553
REMARK INTER:                  -8.519
REMARK INTRA:                   0.966
REMARK UNBOUND:                 0.996
REMARK  6 active torsions:
REMARK  status: ('A' for Active; 'I' for Inactive)
REMARK    1  A    between atoms: O_1  and  C_8 
REMARK    2  A    between atoms: O_2  and  C_9 
REMARK    3  A    between atoms: O_3  and  C_13 
REMARK    4  A    between atoms: C_5  and  C_11 
REMARK    5  A    between atoms: C_11  and  C_12 
REMARK    6  A    between atoms: C_12  and  C_13 
ROOT
ATOM      1  C   UNL d   1       6.655  -1.923 -47.133  0.00  0.00    -0.033 A 
ATOM      2  C   UNL d   1       7.105  -1.065 -47.381  0.00  0.00     0.050 A 
ATOM      3  C   UNL d   1       7.162  -2.630 -46.640  0.00  0.00     0.014 A 
ATOM      4  C   UNL d   1       8.063  -0.914 -47.136  0.00  0.00     0.099 A 
ATOM      5  C   UNL d   1       8.571  -1.622 -46.644  0.00  0.00     0.098 A 
ATOM      6  C   UNL d   1       8.120  -2.479 -46.396  0.00  0.00     0.040 A 
ENDROOT
BRANCH   1   7
ATOM      7  C   UNL d   1       5.697  -2.073 -47.377  0.00  0.00     0.018 C 
BRANCH   7   8
ATOM      8  C   UNL d   1       5.464  -2.687 -48.131  0.00  0.00     0.082 C 
BRANCH   8   9
ATOM      9  C   UNL d   1       4.506  -2.827 -48.384  0.00  0.00     0.165 C 
ATOM     10  O   UNL d   1       4.165  -2.486 -49.260  0.00  0.00    -0.647 OA
BRANCH   9  11
ATOM     11  O   UNL d   1       3.890  -3.309 -47.761  0.00  0.00    -0.773 OA
ATOM     12  H   UNL d   1       4.040  -3.370 -47.163  0.00  0.00     0.167 HD
ENDBRANCH   9  11
ENDBRANCH   8   9
ENDBRANCH   7   8
ENDBRANCH   1   7
BRANCH   4  13
ATOM     13  O   UNL d   1       8.513  -0.057 -47.384  0.00  0.00    -0.358 OA
ATOM     14  H   UNL d   1       8.727   0.026 -47.960  0.00  0.00     0.217 HD
ENDBRANCH   4  13
BRANCH   5  15
ATOM     15  O   UNL d   1       9.529  -1.471 -46.400  0.00  0.00    -0.358 OA
ATOM     16  H   UNL d   1       9.979  -1.646 -46.789  0.00  0.00     0.217 HD
ENDBRANCH   5  15
TORSDOF 6
ENDMDL
MODEL 2
REMARK VINA RESULT:    -6.238     42.580     43.483
REMARK INTER + INTRA:          -6.883
REMARK INTER:                  -7.866
REMARK INTRA:                   0.983
REMARK UNBOUND:                 0.996
REMARK  6 active torsions:
REMARK  status: ('A' for Active; 'I' for Inactive)
REMARK    1  A    between atoms: O_1  and  C_8 
REMARK    2  A    between atoms: O_2  and  C_9 
REMARK    3  A    between atoms: O_3  and  C_13 
REMARK    4  A    between atoms: C_5  and  C_11 
REMARK    5  A    between atoms: C_11  and  C_12 
REMARK    6  A    between atoms: C_12  and  C_13 
ROOT
ATOM      1  C   UNL d   1       5.346  19.060  -9.883  0.00  0.00    -0.033 A 
ATOM      2  C   UNL d   1       4.420  19.435  -9.932  0.00  0.00     0.050 A 
ATOM      3  C   UNL d   1       5.493  18.077  -9.989  0.00  0.00     0.014 A 
ATOM      4  C   UNL d   1       3.642  18.826 -10.087  0.00  0.00     0.099 A 
ATOM      5  C   UNL d   1       3.789  17.843 -10.193  0.00  0.00     0.098 A 
ATOM      6  C   UNL d   1       4.715  17.468 -10.144  0.00  0.00     0.040 A 
ENDROOT
BRANCH   1   7
ATOM      7  C   UNL d   1       6.124  19.668  -9.727  0.00  0.00     0.018 C 
BRANCH   7   8
ATOM      8  C   UNL d   1       6.526  19.743  -8.815  0.00  0.00     0.082 C 
BRANCH   8   9
ATOM      9  C   UNL d   1       7.168  20.482  -8.610  0.00  0.00     0.165 C 
ATOM     10  O   UNL d   1       7.931  20.667  -9.230  0.00  0.00    -0.647 OA
BRANCH   9  11
ATOM     11  O   UNL d   1       7.048  21.036  -7.786  0.00  0.00    -0.773 OA
ATOM     12  H   UNL d   1       6.736  21.571  -7.815  0.00  0.00     0.167 HD
ENDBRANCH   9  11
ENDBRANCH   8   9
ENDBRANCH   7   8
ENDBRANCH   1   7
BRANCH   4  13
ATOM     13  O   UNL d   1       2.716  19.201 -10.136  0.00  0.00    -0.358 OA
ATOM     14  H   UNL d   1       2.226  18.832 -10.042  0.00  0.00     0.217 HD
ENDBRANCH   4  13
BRANCH   5  15
ATOM     15  O   UNL d   1       3.011  17.235 -10.348  0.00  0.00    -0.358 OA
ATOM     16  H   UNL d   1       2.491  17.456 -10.603  0.00  0.00     0.217 HD
ENDBRANCH   5  15
TORSDOF 6
ENDMDL
MODEL 3
REMARK VINA RESULT:    -6.189      0.928      4.248
REMARK INTER + INTRA:          -6.822
REMARK INTER:                  -7.761
REMARK INTRA:                   0.939
REMARK UNBOUND:                 0.996
REMARK  6 active torsions:
REMARK  status: ('A' for Active; 'I' for Inactive)
REMARK    1  A    between atoms: O_1  and  C_8 
REMARK    2  A    between atoms: O_2  and  C_9 
REMARK    3  A    between atoms: O_3  and  C_13 
REMARK    4  A    between atoms: C_5  and  C_11 
REMARK    5  A    between atoms: C_11  and  C_12 
REMARK    6  A    between atoms: C_12  and  C_13 
ROOT
ATOM      1  C   UNL d   1       5.968  -1.634 -48.049  0.00  0.00    -0.033 A 
ATOM      2  C   UNL d   1       5.511  -2.470 -47.744  0.00  0.00     0.050 A 
ATOM      3  C   UNL d   1       5.790  -1.273 -48.964  0.00  0.00     0.014 A 
ATOM      4  C   UNL d   1       4.876  -2.944 -48.354  0.00  0.00     0.099 A 
ATOM      5  C   UNL d   1       4.698  -2.582 -49.269  0.00  0.00     0.098 A 
ATOM      6  C   UNL d   1       5.155  -1.747 -49.574  0.00  0.00     0.040 A 
ENDROOT
BRANCH   1   7
ATOM      7  C   UNL d   1       6.602  -1.160 -47.438  0.00  0.00     0.018 C 
BRANCH   7   8
ATOM      8  C   UNL d   1       7.561  -1.441 -47.398  0.00  0.00     0.082 C 
BRANCH   8   9
ATOM      9  C   UNL d   1       8.194  -0.973 -46.781  0.00  0.00     0.165 C 
ATOM     10  O   UNL d   1       8.506  -0.047 -46.992  0.00  0.00    -0.647 OA
BRANCH   9  11
ATOM     11  O   UNL d   1       8.514  -1.432 -45.952  0.00  0.00    -0.773 OA
ATOM     12  H   UNL d   1       8.310  -2.001 -45.814  0.00  0.00     0.167 HD
ENDBRANCH   9  11
ENDBRANCH   8   9
ENDBRANCH   7   8
ENDBRANCH   1   7
BRANCH   4  13
ATOM     13  O   UNL d   1       4.419  -3.779 -48.049  0.00  0.00    -0.358 OA
ATOM     14  H   UNL d   1       3.873  -3.942 -48.295  0.00  0.00     0.217 HD
ENDBRANCH   4  13
BRANCH   5  15
ATOM     15  O   UNL d   1       4.064  -3.056 -49.880  0.00  0.00    -0.358 OA
ATOM     16  H   UNL d   1       3.762  -3.561 -49.682  0.00  0.00     0.217 HD
ENDBRANCH   5  15
TORSDOF 6
ENDMDL
MODEL 4
REMARK VINA RESULT:    -6.176     42.270     43.024
REMARK INTER + INTRA:          -6.805
REMARK INTER:                  -7.914
REMARK INTRA:                   1.109
REMARK UNBOUND:                 0.996
REMARK  6 active torsions:
REMARK  status: ('A' for Active; 'I' for Inactive)
REMARK    1  A    between atoms: O_1  and  C_8 
REMARK    2  A    between atoms: O_2  and  C_9 
REMARK    3  A    between atoms: O_3  and  C_13 
REMARK    4  A    between atoms: C_5  and  C_11 
REMARK    5  A    between atoms: C_11  and  C_12 
REMARK    6  A    between atoms: C_12  and  C_13 
ROOT
ATOM      1  C   UNL d   1       5.270  19.296 -10.109  0.00  0.00    -0.033 A 
ATOM      2  C   UNL d   1       5.497  19.557  -9.171  0.00  0.00     0.050 A 
ATOM      3  C   UNL d   1       5.891  19.531 -10.857  0.00  0.00     0.014 A 
ATOM      4  C   UNL d   1       6.344  20.052  -8.980  0.00  0.00     0.099 A 
ATOM      5  C   UNL d   1       6.965  20.287  -9.728  0.00  0.00     0.098 A 
ATOM      6  C   UNL d   1       6.739  20.026 -10.666  0.00  0.00     0.040 A 
ENDROOT
BRANCH   1   7
ATOM      7  C   UNL d   1       4.423  18.801 -10.300  0.00  0.00     0.018 C 
BRANCH   7   8
ATOM      8  C   UNL d   1       4.234  17.935  -9.836  0.00  0.00     0.082 C 
BRANCH   8   9
ATOM      9  C   UNL d   1       3.714  17.220 -10.304  0.00  0.00     0.165 C 
ATOM     10  O   UNL d   1       4.106  16.307 -10.411  0.00  0.00    -0.647 OA
BRANCH   9  11
ATOM     11  O   UNL d   1       2.803  17.419 -10.664  0.00  0.00    -0.773 OA
ATOM     12  H   UNL d   1       2.557  17.984 -10.591  0.00  0.00     0.167 HD
ENDBRANCH   9  11
ENDBRANCH   8   9
ENDBRANCH   7   8
ENDBRANCH   1   7
BRANCH   4  13
ATOM     13  O   UNL d   1       6.571  20.313  -8.042  0.00  0.00    -0.358 OA
ATOM     14  H   UNL d   1       7.162  20.408  -7.880  0.00  0.00     0.217 HD
ENDBRANCH   4  13
BRANCH   5  15
ATOM     15  O   UNL d   1       7.813  20.782  -9.537  0.00  0.00    -0.358 OA
ATOM     16  H   UNL d   1       8.124  21.053 -10.000  0.00  0.00     0.217 HD
ENDBRANCH   5  15
TORSDOF 6
ENDMDL
MODEL 5
REMARK VINA RESULT:    -5.839     35.111     36.319
REMARK INTER + INTRA:          -6.380
REMARK INTER:                  -7.566
REMARK INTRA:                   1.186
REMARK UNBOUND:                 0.996
REMARK  6 active torsions:
REMARK  status: ('A' for Active; 'I' for Inactive)
REMARK    1  A    between atoms: O_1  and  C_8 
REMARK    2  A    between atoms: O_2  and  C_9 
REMARK    3  A    between atoms: O_3  and  C_13 
REMARK    4  A    between atoms: C_5  and  C_11 
REMARK    5  A    between atoms: C_11  and  C_12 
REMARK    6  A    between atoms: C_12  and  C_13 
ROOT
ATOM      1  C   UNL d   1      18.929  14.810 -17.747  0.00  0.00    -0.033 A 
ATOM      2  C   UNL d   1      19.229  15.193 -18.621  0.00  0.00     0.050 A 
ATOM      3  C   UNL d   1      19.246  13.906 -17.462  0.00  0.00     0.014 A 
ATOM      4  C   UNL d   1      19.846  14.671 -19.209  0.00  0.00     0.099 A 
ATOM      5  C   UNL d   1      20.164  13.767 -18.924  0.00  0.00     0.098 A 
ATOM      6  C   UNL d   1      19.864  13.384 -18.050  0.00  0.00     0.040 A 
ENDROOT
BRANCH   1   7
ATOM      7  C   UNL d   1      18.311  15.332 -17.159  0.00  0.00     0.018 C 
BRANCH   7   8
ATOM      8  C   UNL d   1      18.251  16.326 -17.253  0.00  0.00     0.082 C 
BRANCH   8   9
ATOM      9  C   UNL d   1      17.724  16.860 -16.592  0.00  0.00     0.165 C 
ATOM     10  O   UNL d   1      17.474  16.459 -15.711  0.00  0.00    -0.647 OA
BRANCH   9  11
ATOM     11  O   UNL d   1      17.447  17.795 -16.812  0.00  0.00    -0.773 OA
ATOM     12  H   UNL d   1      17.790  18.137 -17.200  0.00  0.00     0.167 HD
ENDBRANCH   9  11
ENDBRANCH   8   9
ENDBRANCH   7   8
ENDBRANCH   1   7
BRANCH   4  13
ATOM     13  O   UNL d   1      20.146  15.054 -20.083  0.00  0.00    -0.358 OA
ATOM     14  H   UNL d   1      20.654  14.830 -20.362  0.00  0.00     0.217 HD
ENDBRANCH   4  13
BRANCH   5  15
ATOM     15  O   UNL d   1      20.781  13.245 -19.513  0.00  0.00    -0.358 OA
ATOM     16  H   UNL d   1      20.630  13.139 -20.104  0.00  0.00     0.217 HD
ENDBRANCH   5  15
TORSDOF 6
ENDMDL
