MODEL 1
REMARK VINA RESULT:    -3.867      0.000      0.000
REMARK INTER + INTRA:          -3.980
REMARK INTER:                  -3.980
REMARK INTRA:                   0.000
REMARK UNBOUND:                 0.000
REMARK  1 active torsions:
REMARK  status: ('A' for Active; 'I' for Inactive)
REMARK    1  A    between atoms: O_1  and  N_3 
REMARK       I    between atoms: N_3  and  C_4 
ROOT
ATOM      1  O   UNL d   1       3.431  23.127  -0.483  0.00  0.00    -0.272 OA
ATOM      2  N   UNL d   1       2.749  22.322  -1.856  0.00  0.00    -0.238 N 
ATOM      3  C   UNL d   1       2.649  22.698  -0.935  0.00  0.00     0.236 C 
ATOM      4  C   UNL d   1       1.768  22.643  -0.465  0.00  0.00     0.119 C 
ATOM      5  H   UNL d   1       2.264  22.055  -2.136  0.00  0.00     0.197 HD
ENDROOT
BRANCH   2   6
ATOM      6  O   UNL d   1       3.630  22.376  -2.325  0.00  0.00    -0.287 OA
ATOM      7  H   UNL d   1       4.157  22.328  -2.002  0.00  0.00     0.244 HD
ENDBRANCH   2   6
TORSDOF 1
ENDMDL
MODEL 2
REMARK VINA RESULT:    -3.518      1.264      1.330
REMARK INTER + INTRA:          -3.621
REMARK INTER:                  -3.621
REMARK INTRA:                   0.000
REMARK UNBOUND:                 0.000
REMARK  1 active torsions:
REMARK  status: ('A' for Active; 'I' for Inactive)
REMARK    1  A    between atoms: O_1  and  N_3 
REMARK       I    between atoms: N_3  and  C_4 
ROOT
ATOM      1  O   UNL d   1       1.263  23.175  -0.805  0.00  0.00    -0.272 OA
ATOM      2  N   UNL d   1       2.486  21.990  -1.120  0.00  0.00    -0.238 N 
ATOM      3  C   UNL d   1       1.852  22.432  -0.486  0.00  0.00     0.236 C 
ATOM      4  C   UNL d   1       1.807  22.132   0.467  0.00  0.00     0.119 C 
ATOM      5  H   UNL d   1       2.851  21.529  -0.922  0.00  0.00     0.197 HD
ENDROOT
BRANCH   2   6
ATOM      6  O   UNL d   1       2.532  22.290  -2.073  0.00  0.00    -0.287 OA
ATOM      7  H   UNL d   1       2.009  22.377  -2.395  0.00  0.00     0.244 HD
ENDBRANCH   2   6
TORSDOF 1
ENDMDL
MODEL 3
REMARK VINA RESULT:    -3.451     17.905     18.135
REMARK INTER + INTRA:          -3.552
REMARK INTER:                  -3.552
REMARK INTRA:                   0.000
REMARK UNBOUND:                 0.000
REMARK  1 active torsions:
REMARK  status: ('A' for Active; 'I' for Inactive)
REMARK    1  A    between atoms: O_1  and  N_3 
REMARK       I    between atoms: N_3  and  C_4 
ROOT
ATOM      1  O   UNL d   1      16.400  21.666  12.035  0.00  0.00    -0.272 OA
ATOM      2  N   UNL d   1      16.033  22.712  10.705  0.00  0.00    -0.238 N 
ATOM      3  C   UNL d   1      15.734  22.060  11.402  0.00  0.00     0.236 C 
ATOM      4  C   UNL d   1      14.770  21.803  11.466  0.00  0.00     0.119 C 
ATOM      5  H   UNL d   1      15.620  22.957  10.312  0.00  0.00     0.197 HD
ENDROOT
BRANCH   2   6
ATOM      6  O   UNL d   1      16.997  22.969  10.640  0.00  0.00    -0.287 OA
ATOM      7  H   UNL d   1      17.388  22.624  10.306  0.00  0.00     0.244 HD
ENDBRANCH   2   6
TORSDOF 1
ENDMDL
MODEL 4
REMARK VINA RESULT:    -3.401     25.586     25.857
REMARK INTER + INTRA:          -3.501
REMARK INTER:                  -3.501
REMARK INTRA:                   0.000
REMARK UNBOUND:                 0.000
REMARK  1 active torsions:
REMARK  status: ('A' for Active; 'I' for Inactive)
REMARK    1  A    between atoms: O_1  and  N_3 
REMARK       I    between atoms: N_3  and  C_4 
ROOT
ATOM      1  O   UNL d   1      21.090  40.062   5.871  0.00  0.00    -0.272 OA
ATOM      2  N   UNL d   1      21.619  38.448   5.532  0.00  0.00    -0.238 N 
ATOM      3  C   UNL d   1      21.565  39.413   5.277  0.00  0.00     0.236 C 
ATOM      4  C   UNL d   1      21.986  39.730   4.427  0.00  0.00     0.119 C 
ATOM      5  H   UNL d   1      21.914  38.045   5.164  0.00  0.00     0.197 HD
ENDROOT
BRANCH   2   6
ATOM      6  O   UNL d   1      21.198  38.131   6.382  0.00  0.00    -0.287 OA
ATOM      7  H   UNL d   1      21.538  38.085   6.898  0.00  0.00     0.244 HD
ENDBRANCH   2   6
TORSDOF 1
ENDMDL
MODEL 5
REMARK VINA RESULT:    -3.202     10.901     11.354
REMARK INTER + INTRA:          -3.295
REMARK INTER:                  -3.295
REMARK INTRA:                   0.000
REMARK UNBOUND:                 0.000
REMARK  1 active torsions:
REMARK  status: ('A' for Active; 'I' for Inactive)
REMARK    1  A    between atoms: O_1  and  N_3 
REMARK       I    between atoms: N_3  and  C_4 
ROOT
ATOM      1  O   UNL d   1       8.795  14.989  -8.257  0.00  0.00    -0.272 OA
ATOM      2  N   UNL d   1       8.546  16.659  -7.868  0.00  0.00    -0.238 N 
ATOM      3  C   UNL d   1       8.526  15.912  -8.533  0.00  0.00     0.236 C 
ATOM      4  C   UNL d   1       8.238  16.089  -9.474  0.00  0.00     0.119 C 
ATOM      5  H   UNL d   1       8.380  17.231  -8.039  0.00  0.00     0.197 HD
ENDROOT
BRANCH   2   6
ATOM      6  O   UNL d   1       8.835  16.482  -6.927  0.00  0.00    -0.287 OA
ATOM      7  H   UNL d   1       8.618  16.834  -6.465  0.00  0.00     0.244 HD
ENDBRANCH   2   6
TORSDOF 1
ENDMDL
