MODEL 1
REMARK VINA RESULT:    -8.463      0.000      0.000
REMARK INTER + INTRA:          -8.321
REMARK INTER:                 -10.191
REMARK INTRA:                   1.871
REMARK UNBOUND:                 1.874
REMARK  5 active torsions:
REMARK  status: ('A' for Active; 'I' for Inactive)
REMARK    1  A    between atoms: O_2  and  C_13 
REMARK    2  A    between atoms: O_3  and  C_19 
REMARK    3  A    between atoms: O_5  and  C_17 
REMARK    4  A    between atoms: O_6  and  C_21 
REMARK    5  A    between atoms: C_8  and  C_10 
ROOT
ATOM      1  O   UNL d   1     -22.587 -41.269  15.559  0.00  0.00    -0.309 OA
ATOM      2  O   UNL d   1     -24.384 -39.338  16.988  0.00  0.00    -0.287 OA
ATOM      3  C   UNL d   1     -23.045 -40.436  17.007  0.00  0.00     0.081 A 
ATOM      4  C   UNL d   1     -23.327 -40.814  15.063  0.00  0.00     0.090 A 
ATOM      5  C   UNL d   1     -22.446 -41.080  16.530  0.00  0.00     0.095 A 
ATOM      6  C   UNL d   1     -23.785 -39.982  16.511  0.00  0.00     0.190 A 
ATOM      7  C   UNL d   1     -23.926 -40.170  15.540  0.00  0.00     0.094 A 
ATOM      8  C   UNL d   1     -22.910 -40.230  18.019  0.00  0.00     0.085 A 
ATOM      9  C   UNL d   1     -21.671 -41.561  17.033  0.00  0.00     0.075 A 
ATOM     10  C   UNL d   1     -21.518 -41.370  18.045  0.00  0.00     0.071 A 
ATOM     11  C   UNL d   1     -22.141 -40.700  18.541  0.00  0.00     0.074 A 
ENDROOT
BRANCH   4  12
ATOM     12  C   UNL d   1     -23.468 -41.003  14.091  0.00  0.00     0.001 A 
ATOM     13  C   UNL d   1     -23.808 -41.897  13.800  0.00  0.00     0.054 A 
ATOM     14  C   UNL d   1     -23.949 -42.086  12.828  0.00  0.00     0.102 A 
ATOM     15  C   UNL d   1     -23.750 -41.380  12.148  0.00  0.00     0.099 A 
ATOM     16  C   UNL d   1     -23.411 -40.486  12.439  0.00  0.00     0.040 A 
ATOM     17  C   UNL d   1     -23.270 -40.297  13.411  0.00  0.00     0.017 A 
BRANCH  14  18
ATOM     18  O   UNL d   1     -24.288 -42.980  12.537  0.00  0.00    -0.353 OA
ATOM     19  C   UNL d   1     -24.584 -43.649  13.218  0.00  0.00     0.210 C 
ENDBRANCH  14  18
BRANCH  15  20
ATOM     20  O   UNL d   1     -23.891 -41.569  11.176  0.00  0.00    -0.358 OA
ATOM     21  H   UNL d   1     -24.462 -41.542  10.934  0.00  0.00     0.217 HD
ENDBRANCH  15  20
ENDBRANCH   4  12
BRANCH   8  22
ATOM     22  O   UNL d   1     -23.515 -39.585  18.485  0.00  0.00    -0.360 OA
ATOM     23  H   UNL d   1     -24.077 -39.464  18.253  0.00  0.00     0.217 HD
ENDBRANCH   8  22
BRANCH  10  24
ATOM     24  O   UNL d   1     -20.776 -41.827  18.537  0.00  0.00    -0.361 OA
ATOM     25  H   UNL d   1     -20.342 -41.490  18.824  0.00  0.00     0.217 HD
ENDBRANCH  10  24
TORSDOF 5
ENDMDL
MODEL 2
REMARK VINA RESULT:    -8.374      2.793      5.366
REMARK INTER + INTRA:          -8.214
REMARK INTER:                 -10.057
REMARK INTRA:                   1.843
REMARK UNBOUND:                 1.874
REMARK  5 active torsions:
REMARK  status: ('A' for Active; 'I' for Inactive)
REMARK    1  A    between atoms: O_2  and  C_13 
REMARK    2  A    between atoms: O_3  and  C_19 
REMARK    3  A    between atoms: O_5  and  C_17 
REMARK    4  A    between atoms: O_6  and  C_21 
REMARK    5  A    between atoms: C_8  and  C_10 
ROOT
ATOM      1  O   UNL d   1     -25.044 -40.200  13.678  0.00  0.00    -0.309 OA
ATOM      2  O   UNL d   1     -25.547 -43.148  13.443  0.00  0.00    -0.287 OA
ATOM      3  C   UNL d   1     -24.637 -41.742  13.003  0.00  0.00     0.081 A 
ATOM      4  C   UNL d   1     -25.787 -40.623  14.196  0.00  0.00     0.090 A 
ATOM      5  C   UNL d   1     -24.469 -40.760  13.081  0.00  0.00     0.095 A 
ATOM      6  C   UNL d   1     -25.380 -42.165  13.521  0.00  0.00     0.190 A 
ATOM      7  C   UNL d   1     -25.955 -41.606  14.118  0.00  0.00     0.094 A 
ATOM      8  C   UNL d   1     -24.046 -42.337  12.385  0.00  0.00     0.085 A 
ATOM      9  C   UNL d   1     -23.699 -40.304  12.547  0.00  0.00     0.075 A 
ATOM     10  C   UNL d   1     -23.096 -40.880  11.923  0.00  0.00     0.071 A 
ATOM     11  C   UNL d   1     -23.270 -41.903  11.842  0.00  0.00     0.074 A 
ENDROOT
BRANCH   4  12
ATOM     12  C   UNL d   1     -26.362 -40.064  14.793  0.00  0.00     0.001 A 
ATOM     13  C   UNL d   1     -26.053 -39.838  15.717  0.00  0.00     0.054 A 
ATOM     14  C   UNL d   1     -26.628 -39.279  16.314  0.00  0.00     0.102 A 
ATOM     15  C   UNL d   1     -27.512 -38.945  15.987  0.00  0.00     0.099 A 
ATOM     16  C   UNL d   1     -27.821 -39.171  15.063  0.00  0.00     0.040 A 
ATOM     17  C   UNL d   1     -27.246 -39.730  14.466  0.00  0.00     0.017 A 
BRANCH  14  18
ATOM     18  O   UNL d   1     -26.319 -39.053  17.238  0.00  0.00    -0.353 OA
ATOM     19  C   UNL d   1     -25.350 -39.132  17.474  0.00  0.00     0.210 C 
ENDBRANCH  14  18
BRANCH  15  20
ATOM     20  O   UNL d   1     -28.087 -38.385  16.584  0.00  0.00    -0.358 OA
ATOM     21  H   UNL d   1     -28.576 -38.638  16.868  0.00  0.00     0.217 HD
ENDBRANCH  15  20
ENDBRANCH   4  12
BRANCH   8  22
ATOM     22  O   UNL d   1     -24.223 -43.319  12.314  0.00  0.00    -0.360 OA
ATOM     23  H   UNL d   1     -24.750 -43.521  12.059  0.00  0.00     0.217 HD
ENDBRANCH   8  22
BRANCH  10  24
ATOM     24  O   UNL d   1     -22.354 -40.453  11.406  0.00  0.00    -0.361 OA
ATOM     25  H   UNL d   1     -22.465 -39.947  11.065  0.00  0.00     0.217 HD
ENDBRANCH  10  24
TORSDOF 5
ENDMDL
MODEL 3
REMARK VINA RESULT:    -8.252      1.835      2.100
REMARK INTER + INTRA:          -8.066
REMARK INTER:                  -9.886
REMARK INTRA:                   1.820
REMARK UNBOUND:                 1.874
REMARK  5 active torsions:
REMARK  status: ('A' for Active; 'I' for Inactive)
REMARK    1  A    between atoms: O_2  and  C_13 
REMARK    2  A    between atoms: O_3  and  C_19 
REMARK    3  A    between atoms: O_5  and  C_17 
REMARK    4  A    between atoms: O_6  and  C_21 
REMARK    5  A    between atoms: C_8  and  C_10 
ROOT
ATOM      1  O   UNL d   1     -23.028 -41.090  15.572  0.00  0.00    -0.309 OA
ATOM      2  O   UNL d   1     -21.508 -38.504  15.560  0.00  0.00    -0.287 OA
ATOM      3  C   UNL d   1     -21.813 -40.061  16.254  0.00  0.00     0.081 A 
ATOM      4  C   UNL d   1     -23.230 -40.395  14.882  0.00  0.00     0.090 A 
ATOM      5  C   UNL d   1     -22.320 -40.923  16.258  0.00  0.00     0.095 A 
ATOM      6  C   UNL d   1     -22.014 -39.366  15.564  0.00  0.00     0.190 A 
ATOM      7  C   UNL d   1     -22.723 -39.533  14.878  0.00  0.00     0.094 A 
ATOM      8  C   UNL d   1     -21.073 -39.873  16.962  0.00  0.00     0.085 A 
ATOM      9  C   UNL d   1     -22.122 -41.656  16.971  0.00  0.00     0.075 A 
ATOM     10  C   UNL d   1     -21.386 -41.490  17.689  0.00  0.00     0.071 A 
ATOM     11  C   UNL d   1     -20.858 -40.592  17.684  0.00  0.00     0.074 A 
ENDROOT
BRANCH   4  12
ATOM     12  C   UNL d   1     -23.938 -40.562  14.196  0.00  0.00     0.001 A 
ATOM     13  C   UNL d   1     -24.888 -40.318  14.389  0.00  0.00     0.054 A 
ATOM     14  C   UNL d   1     -25.597 -40.485  13.703  0.00  0.00     0.102 A 
ATOM     15  C   UNL d   1     -25.354 -40.896  12.824  0.00  0.00     0.099 A 
ATOM     16  C   UNL d   1     -24.404 -41.139  12.631  0.00  0.00     0.040 A 
ATOM     17  C   UNL d   1     -23.696 -40.972  13.317  0.00  0.00     0.017 A 
BRANCH  14  18
ATOM     18  O   UNL d   1     -26.547 -40.242  13.896  0.00  0.00    -0.353 OA
ATOM     19  C   UNL d   1     -26.809 -39.937  14.812  0.00  0.00     0.210 C 
ENDBRANCH  14  18
BRANCH  15  20
ATOM     20  O   UNL d   1     -26.062 -41.062  12.138  0.00  0.00    -0.358 OA
ATOM     21  H   UNL d   1     -26.526 -41.455  12.261  0.00  0.00     0.217 HD
ENDBRANCH  15  20
ENDBRANCH   4  12
BRANCH   8  22
ATOM     22  O   UNL d   1     -20.572 -39.007  16.948  0.00  0.00    -0.360 OA
ATOM     23  H   UNL d   1     -20.856 -38.483  17.116  0.00  0.00     0.217 HD
ENDBRANCH   8  22
BRANCH  10  24
ATOM     24  O   UNL d   1     -21.188 -42.188  18.377  0.00  0.00    -0.361 OA
ATOM     25  H   UNL d   1     -20.653 -42.501  18.356  0.00  0.00     0.217 HD
ENDBRANCH  10  24
TORSDOF 5
ENDMDL
MODEL 4
REMARK VINA RESULT:    -8.059     36.219     37.598
REMARK INTER + INTRA:          -7.834
REMARK INTER:                  -9.720
REMARK INTRA:                   1.886
REMARK UNBOUND:                 1.874
REMARK  5 active torsions:
REMARK  status: ('A' for Active; 'I' for Inactive)
REMARK    1  A    between atoms: O_2  and  C_13 
REMARK    2  A    between atoms: O_3  and  C_19 
REMARK    3  A    between atoms: O_5  and  C_17 
REMARK    4  A    between atoms: O_6  and  C_21 
REMARK    5  A    between atoms: C_8  and  C_10 
ROOT
ATOM      1  O   UNL d   1     -26.154 -20.420  46.708  0.00  0.00    -0.309 OA
ATOM      2  O   UNL d   1     -25.246 -19.308  44.073  0.00  0.00    -0.287 OA
ATOM      3  C   UNL d   1     -24.929 -20.244  45.496  0.00  0.00     0.081 A 
ATOM      4  C   UNL d   1     -26.774 -19.855  46.163  0.00  0.00     0.090 A 
ATOM      5  C   UNL d   1     -25.232 -20.615  46.374  0.00  0.00     0.095 A 
ATOM      6  C   UNL d   1     -25.549 -19.679  44.951  0.00  0.00     0.190 A 
ATOM      7  C   UNL d   1     -26.471 -19.485  45.285  0.00  0.00     0.094 A 
ATOM      8  C   UNL d   1     -23.972 -20.438  45.135  0.00  0.00     0.085 A 
ATOM      9  C   UNL d   1     -24.597 -21.205  46.952  0.00  0.00     0.075 A 
ATOM     10  C   UNL d   1     -23.635 -21.412  46.611  0.00  0.00     0.071 A 
ATOM     11  C   UNL d   1     -23.320 -21.026  45.697  0.00  0.00     0.074 A 
ENDROOT
BRANCH   4  12
ATOM     12  C   UNL d   1     -27.696 -19.661  46.497  0.00  0.00     0.001 A 
ATOM     13  C   UNL d   1     -28.371 -20.396  46.558  0.00  0.00     0.054 A 
ATOM     14  C   UNL d   1     -29.294 -20.202  46.892  0.00  0.00     0.102 A 
ATOM     15  C   UNL d   1     -29.541 -19.272  47.165  0.00  0.00     0.099 A 
ATOM     16  C   UNL d   1     -28.866 -18.537  47.104  0.00  0.00     0.040 A 
ATOM     17  C   UNL d   1     -27.943 -18.731  46.770  0.00  0.00     0.017 A 
BRANCH  14  18
ATOM     18  O   UNL d   1     -29.969 -20.937  46.953  0.00  0.00    -0.353 OA
ATOM     19  C   UNL d   1     -29.817 -21.797  46.466  0.00  0.00     0.210 C 
ENDBRANCH  14  18
BRANCH  15  20
ATOM     20  O   UNL d   1     -30.463 -19.077  47.498  0.00  0.00    -0.358 OA
ATOM     21  H   UNL d   1     -30.608 -18.507  47.695  0.00  0.00     0.217 HD
ENDBRANCH  15  20
ENDBRANCH   4  12
BRANCH   8  22
ATOM     22  O   UNL d   1     -23.680 -20.063  44.256  0.00  0.00    -0.360 OA
ATOM     23  H   UNL d   1     -23.294 -20.385  43.894  0.00  0.00     0.217 HD
ENDBRANCH   8  22
BRANCH  10  24
ATOM     24  O   UNL d   1     -23.018 -21.978  47.159  0.00  0.00    -0.361 OA
ATOM     25  H   UNL d   1     -22.478 -21.746  47.356  0.00  0.00     0.217 HD
ENDBRANCH  10  24
TORSDOF 5
ENDMDL
MODEL 5
REMARK VINA RESULT:    -7.694      1.983      5.151
REMARK INTER + INTRA:          -7.394
REMARK INTER:                  -9.215
REMARK INTRA:                   1.821
REMARK UNBOUND:                 1.874
REMARK  5 active torsions:
REMARK  status: ('A' for Active; 'I' for Inactive)
REMARK    1  A    between atoms: O_2  and  C_13 
REMARK    2  A    between atoms: O_3  and  C_19 
REMARK    3  A    between atoms: O_5  and  C_17 
REMARK    4  A    between atoms: O_6  and  C_21 
REMARK    5  A    between atoms: C_8  and  C_10 
ROOT
ATOM      1  O   UNL d   1     -24.261 -40.409  15.302  0.00  0.00    -0.309 OA
ATOM      2  O   UNL d   1     -23.858 -41.628  12.591  0.00  0.00    -0.287 OA
ATOM      3  C   UNL d   1     -24.877 -40.824  13.737  0.00  0.00     0.081 A 
ATOM      4  C   UNL d   1     -23.376 -40.807  15.059  0.00  0.00     0.090 A 
ATOM      5  C   UNL d   1     -25.011 -40.417  14.641  0.00  0.00     0.095 A 
ATOM      6  C   UNL d   1     -23.993 -41.222  13.495  0.00  0.00     0.190 A 
ATOM      7  C   UNL d   1     -23.242 -41.213  14.156  0.00  0.00     0.094 A 
ATOM      8  C   UNL d   1     -25.649 -40.839  13.039  0.00  0.00     0.085 A 
ATOM      9  C   UNL d   1     -25.927 -39.999  14.909  0.00  0.00     0.075 A 
ATOM     10  C   UNL d   1     -26.713 -40.003  14.226  0.00  0.00     0.071 A 
ATOM     11  C   UNL d   1     -26.574 -40.427  13.285  0.00  0.00     0.074 A 
ENDROOT
BRANCH   4  12
ATOM     12  C   UNL d   1     -22.626 -40.799  15.720  0.00  0.00     0.001 A 
ATOM     13  C   UNL d   1     -22.015 -40.009  15.774  0.00  0.00     0.054 A 
ATOM     14  C   UNL d   1     -21.265 -40.000  16.435  0.00  0.00     0.102 A 
ATOM     15  C   UNL d   1     -21.125 -40.782  17.042  0.00  0.00     0.099 A 
ATOM     16  C   UNL d   1     -21.736 -41.573  16.989  0.00  0.00     0.040 A 
ATOM     17  C   UNL d   1     -22.486 -41.581  16.328  0.00  0.00     0.017 A 
BRANCH  14  18
ATOM     18  O   UNL d   1     -20.655 -39.210  16.488  0.00  0.00    -0.353 OA
ATOM     19  C   UNL d   1     -20.830 -38.403  15.924  0.00  0.00     0.210 C 
ENDBRANCH  14  18
BRANCH  15  20
ATOM     20  O   UNL d   1     -20.375 -40.774  17.703  0.00  0.00    -0.358 OA
ATOM     21  H   UNL d   1     -20.240 -41.286  18.026  0.00  0.00     0.217 HD
ENDBRANCH  15  20
ENDBRANCH   4  12
BRANCH   8  22
ATOM     22  O   UNL d   1     -25.504 -41.248  12.138  0.00  0.00    -0.360 OA
ATOM     23  H   UNL d   1     -25.373 -40.888  11.652  0.00  0.00     0.217 HD
ENDBRANCH   8  22
BRANCH  10  24
ATOM     24  O   UNL d   1     -27.597 -39.604  14.473  0.00  0.00    -0.361 OA
ATOM     25  H   UNL d   1     -28.099 -39.965  14.514  0.00  0.00     0.217 HD
ENDBRANCH  10  24
TORSDOF 5
ENDMDL
