MODEL 1
REMARK VINA RESULT:    -9.230      0.000      0.000
REMARK INTER + INTRA:          -7.658
REMARK INTER:                 -11.153
REMARK INTRA:                   3.496
REMARK UNBOUND:                 3.461
REMARK  6 active torsions:
REMARK  status: ('A' for Active; 'I' for Inactive)
REMARK    1  A    between atoms: O_2  and  C_7 
REMARK    2  A    between atoms: O_3  and  C_13 
REMARK    3  A    between atoms: O_4  and  C_18 
REMARK    4  A    between atoms: O_5  and  C_19 
REMARK    5  A    between atoms: O_6  and  C_21 
REMARK    6  A    between atoms: C_8  and  C_12 
ROOT
ATOM      1  O   UNL d   1      11.867  -0.880  -3.914  0.00  0.00    -0.338 OA
ATOM      2  C   UNL d   1      11.845   0.805  -3.511  0.00  0.00     0.156 A 
ATOM      3  C   UNL d   1      11.471  -0.116  -3.403  0.00  0.00     0.191 A 
ATOM      4  C   UNL d   1      12.616   0.962  -4.128  0.00  0.00     0.079 A 
ATOM      5  C   UNL d   1      13.012   0.199  -4.639  0.00  0.00     0.011 A 
ATOM      6  C   UNL d   1      12.638  -0.722  -4.531  0.00  0.00     0.081 A 
ATOM      7  C   UNL d   1      13.814   0.379  -5.279  0.00  0.00     0.077 A 
ATOM      8  C   UNL d   1      13.039  -1.527  -5.056  0.00  0.00     0.074 A 
ATOM      9  C   UNL d   1      14.231  -0.412  -5.814  0.00  0.00     0.073 A 
ATOM     10  C   UNL d   1      13.842  -1.370  -5.702  0.00  0.00     0.071 A 
ENDROOT
BRANCH   3  11
ATOM     11  C   UNL d   1      10.701  -0.274  -2.785  0.00  0.00    -0.024 A 
ATOM     12  C   UNL d   1       9.769  -0.075  -3.087  0.00  0.00     0.049 A 
ATOM     13  C   UNL d   1       8.998  -0.233  -2.470  0.00  0.00     0.099 A 
ATOM     14  C   UNL d   1       9.160  -0.590  -1.550  0.00  0.00     0.098 A 
ATOM     15  C   UNL d   1      10.093  -0.789  -1.248  0.00  0.00     0.040 A 
ATOM     16  C   UNL d   1      10.863  -0.631  -1.865  0.00  0.00     0.013 A 
BRANCH  13  17
ATOM     17  O   UNL d   1       8.066  -0.033  -2.772  0.00  0.00    -0.358 OA
ATOM     18  H   UNL d   1       7.602  -0.025  -2.360  0.00  0.00     0.217 HD
ENDBRANCH  13  17
BRANCH  14  19
ATOM     19  O   UNL d   1       8.390  -0.748  -0.932  0.00  0.00    -0.358 OA
ATOM     20  H   UNL d   1       8.174  -0.284  -0.582  0.00  0.00     0.217 HD
ENDBRANCH  14  19
ENDBRANCH   3  11
BRANCH   2  21
ATOM     21  O   UNL d   1      11.449   1.568  -3.000  0.00  0.00    -0.392 OA
ATOM     22  H   UNL d   1      10.872   1.757  -3.124  0.00  0.00     0.210 HD
ENDBRANCH   2  21
BRANCH   7  23
ATOM     23  O   UNL d   1      14.180   1.304  -5.378  0.00  0.00    -0.360 OA
ATOM     24  H   UNL d   1      14.067   1.627  -5.895  0.00  0.00     0.217 HD
ENDBRANCH   7  23
BRANCH  10  25
ATOM     25  O   UNL d   1      14.235  -2.136  -6.210  0.00  0.00    -0.361 OA
ATOM     26  H   UNL d   1      14.711  -2.041  -6.596  0.00  0.00     0.217 HD
ENDBRANCH  10  25
TORSDOF 6
ENDMDL
MODEL 2
REMARK VINA RESULT:    -8.970     33.483     35.773
REMARK INTER + INTRA:          -7.344
REMARK INTER:                 -11.281
REMARK INTRA:                   3.937
REMARK UNBOUND:                 3.461
REMARK  6 active torsions:
REMARK  status: ('A' for Active; 'I' for Inactive)
REMARK    1  A    between atoms: O_2  and  C_7 
REMARK    2  A    between atoms: O_3  and  C_13 
REMARK    3  A    between atoms: O_4  and  C_18 
REMARK    4  A    between atoms: O_5  and  C_19 
REMARK    5  A    between atoms: O_6  and  C_21 
REMARK    6  A    between atoms: C_8  and  C_12 
ROOT
ATOM      1  O   UNL d   1      16.064  14.481 -35.678  0.00  0.00    -0.338 OA
ATOM      2  C   UNL d   1      14.426  13.935 -35.534  0.00  0.00     0.156 A 
ATOM      3  C   UNL d   1      15.207  14.191 -36.104  0.00  0.00     0.191 A 
ATOM      4  C   UNL d   1      14.502  13.969 -34.538  0.00  0.00     0.079 A 
ATOM      5  C   UNL d   1      15.359  14.259 -34.111  0.00  0.00     0.011 A 
ATOM      6  C   UNL d   1      16.140  14.516 -34.682  0.00  0.00     0.081 A 
ATOM      7  C   UNL d   1      15.424  14.290 -33.073  0.00  0.00     0.077 A 
ATOM      8  C   UNL d   1      17.039  14.820 -34.252  0.00  0.00     0.074 A 
ATOM      9  C   UNL d   1      16.313  14.592 -32.621  0.00  0.00     0.073 A 
ATOM     10  C   UNL d   1      17.125  14.858 -33.215  0.00  0.00     0.071 A 
ENDROOT
BRANCH   3  11
ATOM     11  C   UNL d   1      15.131  14.157 -37.101  0.00  0.00    -0.024 A 
ATOM     12  C   UNL d   1      14.420  14.684 -37.567  0.00  0.00     0.049 A 
ATOM     13  C   UNL d   1      14.344  14.649 -38.563  0.00  0.00     0.099 A 
ATOM     14  C   UNL d   1      14.979  14.088 -39.094  0.00  0.00     0.098 A 
ATOM     15  C   UNL d   1      15.690  13.561 -38.628  0.00  0.00     0.040 A 
ATOM     16  C   UNL d   1      15.766  13.596 -37.632  0.00  0.00     0.013 A 
BRANCH  13  17
ATOM     17  O   UNL d   1      13.633  15.176 -39.029  0.00  0.00    -0.358 OA
ATOM     18  H   UNL d   1      13.081  15.258 -38.759  0.00  0.00     0.217 HD
ENDBRANCH  13  17
BRANCH  14  19
ATOM     19  O   UNL d   1      14.903  14.054 -40.090  0.00  0.00    -0.358 OA
ATOM     20  H   UNL d   1      14.568  14.481 -40.391  0.00  0.00     0.217 HD
ENDBRANCH  14  19
ENDBRANCH   3  11
BRANCH   2  21
ATOM     21  O   UNL d   1      13.570  13.645 -35.961  0.00  0.00    -0.392 OA
ATOM     22  H   UNL d   1      13.578  13.232 -36.424  0.00  0.00     0.210 HD
ENDBRANCH   2  21
BRANCH   7  23
ATOM     23  O   UNL d   1      14.636  14.032 -32.512  0.00  0.00    -0.360 OA
ATOM     24  H   UNL d   1      14.063  14.177 -32.698  0.00  0.00     0.217 HD
ENDBRANCH   7  23
BRANCH  10  25
ATOM     25  O   UNL d   1      17.983  15.149 -32.792  0.00  0.00    -0.361 OA
ATOM     26  H   UNL d   1      18.095  15.020 -32.196  0.00  0.00     0.217 HD
ENDBRANCH  10  25
TORSDOF 6
ENDMDL
MODEL 3
REMARK VINA RESULT:    -8.883     18.334     19.683
REMARK INTER + INTRA:          -7.239
REMARK INTER:                 -10.705
REMARK INTRA:                   3.465
REMARK UNBOUND:                 3.461
REMARK  6 active torsions:
REMARK  status: ('A' for Active; 'I' for Inactive)
REMARK    1  A    between atoms: O_2  and  C_7 
REMARK    2  A    between atoms: O_3  and  C_13 
REMARK    3  A    between atoms: O_4  and  C_18 
REMARK    4  A    between atoms: O_5  and  C_19 
REMARK    5  A    between atoms: O_6  and  C_21 
REMARK    6  A    between atoms: C_8  and  C_12 
ROOT
ATOM      1  O   UNL d   1      15.339   4.931 -21.474  0.00  0.00    -0.338 OA
ATOM      2  C   UNL d   1      15.339   6.031 -22.812  0.00  0.00     0.156 A 
ATOM      3  C   UNL d   1      14.861   5.367 -22.237  0.00  0.00     0.191 A 
ATOM      4  C   UNL d   1      16.294   6.259 -22.626  0.00  0.00     0.079 A 
ATOM      5  C   UNL d   1      16.773   5.823 -21.863  0.00  0.00     0.011 A 
ATOM      6  C   UNL d   1      16.295   5.159 -21.287  0.00  0.00     0.081 A 
ATOM      7  C   UNL d   1      17.768   6.070 -21.681  0.00  0.00     0.077 A 
ATOM      8  C   UNL d   1      16.780   4.697 -20.489  0.00  0.00     0.074 A 
ATOM      9  C   UNL d   1      18.272   5.620 -20.888  0.00  0.00     0.073 A 
ATOM     10  C   UNL d   1      17.775   4.929 -20.289  0.00  0.00     0.071 A 
ENDROOT
BRANCH   3  11
ATOM     11  C   UNL d   1      13.906   5.139 -22.423  0.00  0.00    -0.024 A 
ATOM     12  C   UNL d   1      13.683   4.367 -23.018  0.00  0.00     0.049 A 
ATOM     13  C   UNL d   1      12.727   4.139 -23.205  0.00  0.00     0.099 A 
ATOM     14  C   UNL d   1      11.995   4.684 -22.797  0.00  0.00     0.098 A 
ATOM     15  C   UNL d   1      12.217   5.456 -22.202  0.00  0.00     0.040 A 
ATOM     16  C   UNL d   1      13.173   5.684 -22.015  0.00  0.00     0.013 A 
BRANCH  13  17
ATOM     17  O   UNL d   1      12.504   3.367 -23.800  0.00  0.00    -0.358 OA
ATOM     18  H   UNL d   1      12.398   3.461 -24.403  0.00  0.00     0.217 HD
ENDBRANCH  13  17
BRANCH  14  19
ATOM     19  O   UNL d   1      11.039   4.456 -22.983  0.00  0.00    -0.358 OA
ATOM     20  H   UNL d   1      10.622   4.468 -22.525  0.00  0.00     0.217 HD
ENDBRANCH  14  19
ENDBRANCH   3  11
BRANCH   2  21
ATOM     21  O   UNL d   1      14.861   6.466 -23.575  0.00  0.00    -0.392 OA
ATOM     22  H   UNL d   1      15.184   6.720 -24.039  0.00  0.00     0.210 HD
ENDBRANCH   2  21
BRANCH   7  23
ATOM     23  O   UNL d   1      18.235   6.735 -22.263  0.00  0.00    -0.360 OA
ATOM     24  H   UNL d   1      18.065   7.331 -22.251  0.00  0.00     0.217 HD
ENDBRANCH   7  23
BRANCH  10  25
ATOM     25  O   UNL d   1      18.250   4.492 -19.526  0.00  0.00    -0.361 OA
ATOM     26  H   UNL d   1      18.869   4.462 -19.521  0.00  0.00     0.217 HD
ENDBRANCH  10  25
TORSDOF 6
ENDMDL
MODEL 4
REMARK VINA RESULT:    -8.823     17.871     19.769
REMARK INTER + INTRA:          -7.167
REMARK INTER:                 -10.670
REMARK INTRA:                   3.502
REMARK UNBOUND:                 3.461
REMARK  6 active torsions:
REMARK  status: ('A' for Active; 'I' for Inactive)
REMARK    1  A    between atoms: O_2  and  C_7 
REMARK    2  A    between atoms: O_3  and  C_13 
REMARK    3  A    between atoms: O_4  and  C_18 
REMARK    4  A    between atoms: O_5  and  C_19 
REMARK    5  A    between atoms: O_6  and  C_21 
REMARK    6  A    between atoms: C_8  and  C_12 
ROOT
ATOM      1  O   UNL d   1      12.783   6.466 -21.270  0.00  0.00    -0.338 OA
ATOM      2  C   UNL d   1      12.470   4.916 -21.978  0.00  0.00     0.156 A 
ATOM      3  C   UNL d   1      13.080   5.696 -21.835  0.00  0.00     0.191 A 
ATOM      4  C   UNL d   1      11.563   4.907 -21.556  0.00  0.00     0.079 A 
ATOM      5  C   UNL d   1      11.267   5.677 -20.991  0.00  0.00     0.011 A 
ATOM      6  C   UNL d   1      11.877   6.456 -20.848  0.00  0.00     0.081 A 
ATOM      7  C   UNL d   1      10.320   5.653 -20.558  0.00  0.00     0.077 A 
ATOM      8  C   UNL d   1      11.582   7.266 -20.262  0.00  0.00     0.074 A 
ATOM      9  C   UNL d   1      10.004   6.452 -19.968  0.00  0.00     0.073 A 
ATOM     10  C   UNL d   1      10.639   7.263 -19.819  0.00  0.00     0.071 A 
ENDROOT
BRANCH   3  11
ATOM     11  C   UNL d   1      13.986   5.705 -22.257  0.00  0.00    -0.024 A 
ATOM     12  C   UNL d   1      14.087   5.960 -23.219  0.00  0.00     0.049 A 
ATOM     13  C   UNL d   1      14.994   5.969 -23.641  0.00  0.00     0.099 A 
ATOM     14  C   UNL d   1      15.799   5.724 -23.101  0.00  0.00     0.098 A 
ATOM     15  C   UNL d   1      15.698   5.470 -22.139  0.00  0.00     0.040 A 
ATOM     16  C   UNL d   1      14.792   5.461 -21.717  0.00  0.00     0.013 A 
BRANCH  13  17
ATOM     17  O   UNL d   1      15.095   6.224 -24.603  0.00  0.00    -0.358 OA
ATOM     18  H   UNL d   1      14.634   6.518 -24.896  0.00  0.00     0.217 HD
ENDBRANCH  13  17
BRANCH  14  19
ATOM     19  O   UNL d   1      16.706   5.734 -23.523  0.00  0.00    -0.358 OA
ATOM     20  H   UNL d   1      17.140   6.126 -23.317  0.00  0.00     0.217 HD
ENDBRANCH  14  19
ENDBRANCH   3  11
BRANCH   2  21
ATOM     21  O   UNL d   1      12.766   4.147 -22.543  0.00  0.00    -0.392 OA
ATOM     22  H   UNL d   1      13.240   4.216 -22.938  0.00  0.00     0.210 HD
ENDBRANCH   2  21
BRANCH   7  23
ATOM     23  O   UNL d   1       9.719   4.868 -20.707  0.00  0.00    -0.360 OA
ATOM     24  H   UNL d   1       9.738   4.385 -20.320  0.00  0.00     0.217 HD
ENDBRANCH   7  23
BRANCH  10  25
ATOM     25  O   UNL d   1      10.346   8.034 -19.255  0.00  0.00    -0.361 OA
ATOM     26  H   UNL d   1      10.052   7.933 -18.719  0.00  0.00     0.217 HD
ENDBRANCH  10  25
TORSDOF 6
ENDMDL
MODEL 5
REMARK VINA RESULT:    -8.811     15.055     16.820
REMARK INTER + INTRA:          -7.154
REMARK INTER:                 -10.615
REMARK INTRA:                   3.461
REMARK UNBOUND:                 3.461
REMARK  6 active torsions:
REMARK  status: ('A' for Active; 'I' for Inactive)
REMARK    1  A    between atoms: O_2  and  C_7 
REMARK    2  A    between atoms: O_3  and  C_13 
REMARK    3  A    between atoms: O_4  and  C_18 
REMARK    4  A    between atoms: O_5  and  C_19 
REMARK    5  A    between atoms: O_6  and  C_21 
REMARK    6  A    between atoms: C_8  and  C_12 
ROOT
ATOM      1  O   UNL d   1      -3.702  -3.307  -9.956  0.00  0.00    -0.338 OA
ATOM      2  C   UNL d   1      -2.332  -2.415  -9.382  0.00  0.00     0.156 A 
ATOM      3  C   UNL d   1      -3.092  -2.517 -10.025  0.00  0.00     0.191 A 
ATOM      4  C   UNL d   1      -2.183  -3.102  -8.671  0.00  0.00     0.079 A 
ATOM      5  C   UNL d   1      -2.793  -3.891  -8.602  0.00  0.00     0.011 A 
ATOM      6  C   UNL d   1      -3.552  -3.993  -9.244  0.00  0.00     0.081 A 
ATOM      7  C   UNL d   1      -2.625  -4.598  -7.856  0.00  0.00     0.077 A 
ATOM      8  C   UNL d   1      -4.196  -4.810  -9.185  0.00  0.00     0.074 A 
ATOM      9  C   UNL d   1      -3.256  -5.423  -7.778  0.00  0.00     0.073 A 
ATOM     10  C   UNL d   1      -4.047  -5.530  -8.447  0.00  0.00     0.071 A 
ENDROOT
BRANCH   3  11
ATOM     11  C   UNL d   1      -3.241  -1.831 -10.736  0.00  0.00    -0.024 A 
ATOM     12  C   UNL d   1      -2.778  -1.916 -11.618  0.00  0.00     0.049 A 
ATOM     13  C   UNL d   1      -2.927  -1.229 -12.330  0.00  0.00     0.099 A 
ATOM     14  C   UNL d   1      -3.540  -0.457 -12.159  0.00  0.00     0.098 A 
ATOM     15  C   UNL d   1      -4.004  -0.373 -11.277  0.00  0.00     0.040 A 
ATOM     16  C   UNL d   1      -3.854  -1.059 -10.566  0.00  0.00     0.013 A 
BRANCH  13  17
ATOM     17  O   UNL d   1      -2.463  -1.314 -13.212  0.00  0.00    -0.358 OA
ATOM     18  H   UNL d   1      -1.844  -1.327 -13.236  0.00  0.00     0.217 HD
ENDBRANCH  13  17
BRANCH  14  19
ATOM     19  O   UNL d   1      -3.689   0.229 -12.870  0.00  0.00    -0.358 OA
ATOM     20  H   UNL d   1      -3.293   0.276 -13.345  0.00  0.00     0.217 HD
ENDBRANCH  14  19
ENDBRANCH   3  11
BRANCH   2  21
ATOM     21  O   UNL d   1      -1.722  -1.626  -9.451  0.00  0.00    -0.392 OA
ATOM     22  H   UNL d   1      -1.149  -1.655  -9.216  0.00  0.00     0.210 HD
ENDBRANCH   2  21
BRANCH   7  23
ATOM     23  O   UNL d   1      -1.862  -4.485  -7.219  0.00  0.00    -0.360 OA
ATOM     24  H   UNL d   1      -1.940  -4.158  -6.698  0.00  0.00     0.217 HD
ENDBRANCH   7  23
BRANCH  10  25
ATOM     25  O   UNL d   1      -4.659  -6.318  -8.381  0.00  0.00    -0.361 OA
ATOM     26  H   UNL d   1      -4.622  -6.775  -8.797  0.00  0.00     0.217 HD
ENDBRANCH  10  25
TORSDOF 6
ENDMDL
