MODEL 1
REMARK VINA RESULT:    -9.176      0.000      0.000
REMARK INTER + INTRA:          -9.161
REMARK INTER:                 -10.284
REMARK INTRA:                   1.123
REMARK UNBOUND:                 1.088
REMARK  3 active torsions:
REMARK  status: ('A' for Active; 'I' for Inactive)
REMARK    1  A    between atoms: O_2  and  C_10 
REMARK    2  A    between atoms: O_4  and  C_13 
REMARK    3  A    between atoms: C_7  and  C_9 
ROOT
ATOM      1  O   UNL d   1      -3.822  -3.101 -10.508  0.00  0.00    -0.309 OA
ATOM      2  O   UNL d   1      -1.400  -2.661  -8.794  0.00  0.00    -0.287 OA
ATOM      3  C   UNL d   1      -2.806  -3.590  -9.193  0.00  0.00     0.081 A 
ATOM      4  C   UNL d   1      -3.614  -3.736  -9.765  0.00  0.00     0.095 A 
ATOM      5  C   UNL d   1      -3.223  -2.319 -10.680  0.00  0.00     0.090 A 
ATOM      6  C   UNL d   1      -2.207  -2.808  -9.365  0.00  0.00     0.190 A 
ATOM      7  C   UNL d   1      -2.577  -4.243  -8.416  0.00  0.00     0.085 A 
ATOM      8  C   UNL d   1      -2.416  -2.172 -10.109  0.00  0.00     0.094 A 
ATOM      9  C   UNL d   1      -4.248  -4.546  -9.598  0.00  0.00     0.075 A 
ATOM     10  C   UNL d   1      -4.037  -5.212  -8.826  0.00  0.00     0.071 A 
ATOM     11  C   UNL d   1      -3.196  -5.060  -8.231  0.00  0.00     0.074 A 
ENDROOT
BRANCH   5  12
ATOM     12  C   UNL d   1      -3.431  -1.683 -11.424  0.00  0.00    -0.002 A 
ATOM     13  C   UNL d   1      -2.756  -1.515 -12.142  0.00  0.00     0.014 A 
ATOM     14  C   UNL d   1      -2.964  -0.880 -12.885  0.00  0.00     0.001 A 
ATOM     15  C   UNL d   1      -3.848  -0.412 -12.911  0.00  0.00     0.000 A 
ATOM     16  C   UNL d   1      -4.523  -0.580 -12.193  0.00  0.00     0.001 A 
ATOM     17  C   UNL d   1      -4.315  -1.216 -11.449  0.00  0.00     0.014 A 
ENDBRANCH   5  12
BRANCH   7  18
ATOM     18  O   UNL d   1      -1.767  -4.087  -7.851  0.00  0.00    -0.360 OA
ATOM     19  H   UNL d   1      -1.575  -3.508  -7.738  0.00  0.00     0.217 HD
ENDBRANCH   7  18
BRANCH  10  20
ATOM     20  O   UNL d   1      -4.639  -5.993  -8.657  0.00  0.00    -0.361 OA
ATOM     21  H   UNL d   1      -5.129  -6.091  -9.023  0.00  0.00     0.217 HD
ENDBRANCH  10  20
TORSDOF 3
ENDMDL
MODEL 2
REMARK VINA RESULT:    -8.939     34.687     36.145
REMARK INTER + INTRA:          -8.896
REMARK INTER:                  -9.962
REMARK INTRA:                   1.066
REMARK UNBOUND:                 1.088
REMARK  3 active torsions:
REMARK  status: ('A' for Active; 'I' for Inactive)
REMARK    1  A    between atoms: O_2  and  C_10 
REMARK    2  A    between atoms: O_4  and  C_13 
REMARK    3  A    between atoms: C_7  and  C_9 
ROOT
ATOM      1  O   UNL d   1      14.690  14.677 -35.031  0.00  0.00    -0.309 OA
ATOM      2  O   UNL d   1      16.107  14.256 -37.642  0.00  0.00    -0.287 OA
ATOM      3  C   UNL d   1      14.643  14.522 -36.756  0.00  0.00     0.081 A 
ATOM      4  C   UNL d   1      14.171  14.662 -35.885  0.00  0.00     0.095 A 
ATOM      5  C   UNL d   1      15.682  14.551 -35.047  0.00  0.00     0.090 A 
ATOM      6  C   UNL d   1      15.635  14.396 -36.771  0.00  0.00     0.190 A 
ATOM      7  C   UNL d   1      14.115  14.504 -37.653  0.00  0.00     0.085 A 
ATOM      8  C   UNL d   1      16.155  14.411 -35.917  0.00  0.00     0.094 A 
ATOM      9  C   UNL d   1      13.138  14.794 -35.853  0.00  0.00     0.075 A 
ATOM     10  C   UNL d   1      12.590  14.781 -36.738  0.00  0.00     0.071 A 
ATOM     11  C   UNL d   1      13.082  14.634 -37.644  0.00  0.00     0.074 A 
ENDROOT
BRANCH   5  12
ATOM     12  C   UNL d   1      16.202  14.565 -34.193  0.00  0.00    -0.002 A 
ATOM     13  C   UNL d   1      16.067  13.844 -33.513  0.00  0.00     0.014 A 
ATOM     14  C   UNL d   1      16.587  13.859 -32.659  0.00  0.00     0.001 A 
ATOM     15  C   UNL d   1      17.241  14.595 -32.484  0.00  0.00     0.000 A 
ATOM     16  C   UNL d   1      17.375  15.316 -33.163  0.00  0.00     0.001 A 
ATOM     17  C   UNL d   1      16.856  15.301 -34.018  0.00  0.00     0.014 A 
ENDBRANCH   5  12
BRANCH   7  18
ATOM     18  O   UNL d   1      14.598  14.363 -38.517  0.00  0.00    -0.360 OA
ATOM     19  H   UNL d   1      14.372  14.605 -39.041  0.00  0.00     0.217 HD
ENDBRANCH   7  18
BRANCH  10  20
ATOM     20  O   UNL d   1      11.598  14.907 -36.718  0.00  0.00    -0.361 OA
ATOM     21  H   UNL d   1      11.347  15.325 -36.336  0.00  0.00     0.217 HD
ENDBRANCH  10  20
TORSDOF 3
ENDMDL
MODEL 3
REMARK VINA RESULT:    -8.889     34.676     35.936
REMARK INTER + INTRA:          -8.840
REMARK INTER:                  -9.954
REMARK INTRA:                   1.114
REMARK UNBOUND:                 1.088
REMARK  3 active torsions:
REMARK  status: ('A' for Active; 'I' for Inactive)
REMARK    1  A    between atoms: O_2  and  C_10 
REMARK    2  A    between atoms: O_4  and  C_13 
REMARK    3  A    between atoms: C_7  and  C_9 
ROOT
ATOM      1  O   UNL d   1      15.166  15.529 -35.567  0.00  0.00    -0.309 OA
ATOM      2  O   UNL d   1      15.307  13.454 -33.405  0.00  0.00    -0.287 OA
ATOM      3  C   UNL d   1      15.979  14.836 -34.204  0.00  0.00     0.081 A 
ATOM      4  C   UNL d   1      15.932  15.528 -34.925  0.00  0.00     0.095 A 
ATOM      5  C   UNL d   1      14.447  14.838 -35.489  0.00  0.00     0.090 A 
ATOM      6  C   UNL d   1      15.260  14.146 -34.126  0.00  0.00     0.190 A 
ATOM      7  C   UNL d   1      16.771  14.823 -33.527  0.00  0.00     0.085 A 
ATOM      8  C   UNL d   1      14.494  14.147 -34.768  0.00  0.00     0.094 A 
ATOM      9  C   UNL d   1      16.674  16.254 -35.019  0.00  0.00     0.075 A 
ATOM     10  C   UNL d   1      17.475  16.259 -34.353  0.00  0.00     0.071 A 
ATOM     11  C   UNL d   1      17.524  15.539 -33.603  0.00  0.00     0.074 A 
ENDROOT
BRANCH   5  12
ATOM     12  C   UNL d   1      13.681  14.839 -36.132  0.00  0.00    -0.002 A 
ATOM     13  C   UNL d   1      13.852  14.762 -37.114  0.00  0.00     0.014 A 
ATOM     14  C   UNL d   1      13.086  14.762 -37.757  0.00  0.00     0.001 A 
ATOM     15  C   UNL d   1      12.149  14.841 -37.417  0.00  0.00     0.000 A 
ATOM     16  C   UNL d   1      11.978  14.919 -36.435  0.00  0.00     0.001 A 
ATOM     17  C   UNL d   1      12.744  14.918 -35.792  0.00  0.00     0.014 A 
ENDBRANCH   5  12
BRANCH   7  18
ATOM     18  O   UNL d   1      16.808  14.127 -32.810  0.00  0.00    -0.360 OA
ATOM     19  H   UNL d   1      17.347  13.993 -32.536  0.00  0.00     0.217 HD
ENDBRANCH   7  18
BRANCH  10  20
ATOM     20  O   UNL d   1      18.192  16.951 -34.435  0.00  0.00    -0.361 OA
ATOM     21  H   UNL d   1      18.735  16.805 -34.695  0.00  0.00     0.217 HD
ENDBRANCH  10  20
TORSDOF 3
ENDMDL
MODEL 4
REMARK VINA RESULT:    -8.822     21.616     23.551
REMARK INTER + INTRA:          -8.765
REMARK INTER:                  -9.766
REMARK INTRA:                   1.001
REMARK UNBOUND:                 1.088
REMARK  3 active torsions:
REMARK  status: ('A' for Active; 'I' for Inactive)
REMARK    1  A    between atoms: O_2  and  C_10 
REMARK    2  A    between atoms: O_4  and  C_13 
REMARK    3  A    between atoms: C_7  and  C_9 
ROOT
ATOM      1  O   UNL d   1      15.191   4.856 -20.962  0.00  0.00    -0.309 OA
ATOM      2  O   UNL d   1      16.652   6.461 -23.033  0.00  0.00    -0.287 OA
ATOM      3  C   UNL d   1      16.674   5.472 -21.612  0.00  0.00     0.081 A 
ATOM      4  C   UNL d   1      16.187   4.937 -20.922  0.00  0.00     0.095 A 
ATOM      5  C   UNL d   1      14.682   5.311 -21.693  0.00  0.00     0.090 A 
ATOM      6  C   UNL d   1      16.165   5.926 -22.343  0.00  0.00     0.190 A 
ATOM      7  C   UNL d   1      17.710   5.564 -21.583  0.00  0.00     0.085 A 
ATOM      8  C   UNL d   1      15.169   5.846 -22.383  0.00  0.00     0.094 A 
ATOM      9  C   UNL d   1      16.703   4.457 -20.154  0.00  0.00     0.075 A 
ATOM     10  C   UNL d   1      17.740   4.536 -20.106  0.00  0.00     0.071 A 
ATOM     11  C   UNL d   1      18.247   5.093 -20.824  0.00  0.00     0.074 A 
ENDROOT
BRANCH   5  12
ATOM     12  C   UNL d   1      13.686   5.231 -21.734  0.00  0.00    -0.002 A 
ATOM     13  C   UNL d   1      13.110   5.929 -21.308  0.00  0.00     0.014 A 
ATOM     14  C   UNL d   1      12.114   5.849 -21.349  0.00  0.00     0.001 A 
ATOM     15  C   UNL d   1      11.694   5.070 -21.814  0.00  0.00     0.000 A 
ATOM     16  C   UNL d   1      12.270   4.372 -22.240  0.00  0.00     0.001 A 
ATOM     17  C   UNL d   1      13.266   4.452 -22.199  0.00  0.00     0.014 A 
ENDBRANCH   5  12
BRANCH   7  18
ATOM     18  O   UNL d   1      18.187   6.102 -22.278  0.00  0.00    -0.360 OA
ATOM     19  H   UNL d   1      18.434   5.820 -22.772  0.00  0.00     0.217 HD
ENDBRANCH   7  18
BRANCH  10  20
ATOM     20  O   UNL d   1      18.246   4.080 -19.373  0.00  0.00    -0.361 OA
ATOM     21  H   UNL d   1      18.790   3.808 -19.495  0.00  0.00     0.217 HD
ENDBRANCH  10  20
TORSDOF 3
ENDMDL
MODEL 5
REMARK VINA RESULT:    -8.810     15.423     17.136
REMARK INTER + INTRA:          -8.752
REMARK INTER:                  -9.774
REMARK INTRA:                   1.022
REMARK UNBOUND:                 1.088
REMARK  3 active torsions:
REMARK  status: ('A' for Active; 'I' for Inactive)
REMARK    1  A    between atoms: O_2  and  C_10 
REMARK    2  A    between atoms: O_4  and  C_13 
REMARK    3  A    between atoms: C_7  and  C_9 
ROOT
ATOM      1  O   UNL d   1      11.829  -0.833  -3.930  0.00  0.00    -0.309 OA
ATOM      2  O   UNL d   1      12.846   1.970  -4.260  0.00  0.00    -0.287 OA
ATOM      3  C   UNL d   1      12.945   0.284  -4.643  0.00  0.00     0.081 A 
ATOM      4  C   UNL d   1      12.605  -0.650  -4.533  0.00  0.00     0.095 A 
ATOM      5  C   UNL d   1      11.391  -0.080  -3.437  0.00  0.00     0.090 A 
ATOM      6  C   UNL d   1      12.507   1.036  -4.150  0.00  0.00     0.190 A 
ATOM      7  C   UNL d   1      13.753   0.489  -5.267  0.00  0.00     0.085 A 
ATOM      8  C   UNL d   1      11.730   0.854  -3.547  0.00  0.00     0.094 A 
ATOM      9  C   UNL d   1      13.051  -1.444  -5.039  0.00  0.00     0.075 A 
ATOM     10  C   UNL d   1      13.860  -1.262  -5.669  0.00  0.00     0.071 A 
ATOM     11  C   UNL d   1      14.214  -0.290  -5.784  0.00  0.00     0.074 A 
ENDROOT
BRANCH   5  12
ATOM     12  C   UNL d   1      10.614  -0.263  -2.834  0.00  0.00    -0.002 A 
ATOM     13  C   UNL d   1       9.686  -0.042  -3.134  0.00  0.00     0.014 A 
ATOM     14  C   UNL d   1       8.909  -0.225  -2.531  0.00  0.00     0.001 A 
ATOM     15  C   UNL d   1       9.061  -0.627  -1.629  0.00  0.00     0.000 A 
ATOM     16  C   UNL d   1       9.989  -0.847  -1.329  0.00  0.00     0.001 A 
ATOM     17  C   UNL d   1      10.766  -0.665  -1.931  0.00  0.00     0.014 A 
ENDBRANCH   5  12
BRANCH   7  18
ATOM     18  O   UNL d   1      14.084   1.427  -5.369  0.00  0.00    -0.360 OA
ATOM     19  H   UNL d   1      14.513   1.559  -5.796  0.00  0.00     0.217 HD
ENDBRANCH   7  18
BRANCH  10  20
ATOM     20  O   UNL d   1      14.295  -2.017  -6.160  0.00  0.00    -0.361 OA
ATOM     21  H   UNL d   1      14.414  -2.550  -5.866  0.00  0.00     0.217 HD
ENDBRANCH  10  20
TORSDOF 3
ENDMDL
