MODEL 1
REMARK VINA RESULT:    -9.783      0.000      0.000
REMARK INTER + INTRA:          -9.927
REMARK INTER:                 -11.758
REMARK INTRA:                   1.831
REMARK UNBOUND:                 1.857
REMARK  5 active torsions:
REMARK  status: ('A' for Active; 'I' for Inactive)
REMARK    1  A    between atoms: O_2  and  C_13 
REMARK    2  A    between atoms: O_3  and  C_19 
REMARK    3  A    between atoms: O_5  and  C_17 
REMARK    4  A    between atoms: O_6  and  C_21 
REMARK    5  A    between atoms: C_8  and  C_10 
ROOT
ATOM      1  O   UNL d   1      -4.616  21.424  46.552  0.00  0.00    -0.309 OA
ATOM      2  O   UNL d   1      -2.630  21.748  44.327  0.00  0.00    -0.287 OA
ATOM      3  C   UNL d   1      -3.886  20.836  45.096  0.00  0.00     0.081 A 
ATOM      4  C   UNL d   1      -4.023  22.228  46.525  0.00  0.00     0.090 A 
ATOM      5  C   UNL d   1      -4.548  20.728  45.837  0.00  0.00     0.095 A 
ATOM      6  C   UNL d   1      -3.292  21.640  45.069  0.00  0.00     0.190 A 
ATOM      7  C   UNL d   1      -3.360  22.336  45.783  0.00  0.00     0.094 A 
ATOM      8  C   UNL d   1      -3.804  20.119  44.345  0.00  0.00     0.085 A 
ATOM      9  C   UNL d   1      -5.174  19.896  45.879  0.00  0.00     0.075 A 
ATOM     10  C   UNL d   1      -5.109  19.167  45.138  0.00  0.00     0.071 A 
ATOM     11  C   UNL d   1      -4.420  19.279  44.366  0.00  0.00     0.074 A 
ENDROOT
BRANCH   4  12
ATOM     12  C   UNL d   1      -4.091  22.924  47.240  0.00  0.00     0.001 A 
ATOM     13  C   UNL d   1      -4.648  23.741  47.091  0.00  0.00     0.054 A 
ATOM     14  C   UNL d   1      -4.716  24.437  47.806  0.00  0.00     0.102 A 
ATOM     15  C   UNL d   1      -4.227  24.316  48.669  0.00  0.00     0.099 A 
ATOM     16  C   UNL d   1      -3.669  23.499  48.818  0.00  0.00     0.040 A 
ATOM     17  C   UNL d   1      -3.601  22.803  48.103  0.00  0.00     0.017 A 
BRANCH  14  18
ATOM     18  O   UNL d   1      -5.274  25.253  47.657  0.00  0.00    -0.353 OA
ATOM     19  C   UNL d   1      -5.586  25.484  46.736  0.00  0.00     0.210 C 
ENDBRANCH  14  18
BRANCH  15  20
ATOM     20  O   UNL d   1      -4.295  25.012  49.384  0.00  0.00    -0.358 OA
ATOM     21  H   UNL d   1      -4.831  25.308  49.479  0.00  0.00     0.217 HD
ENDBRANCH  15  20
ENDBRANCH   4  12
BRANCH   8  22
ATOM     22  O   UNL d   1      -3.139  20.238  43.608  0.00  0.00    -0.360 OA
ATOM     23  H   UNL d   1      -2.835  20.775  43.548  0.00  0.00     0.217 HD
ENDBRANCH   8  22
BRANCH  10  24
ATOM     24  O   UNL d   1      -5.705  18.364  45.169  0.00  0.00    -0.361 OA
ATOM     25  H   UNL d   1      -6.152  18.327  45.597  0.00  0.00     0.217 HD
ENDBRANCH  10  24
TORSDOF 5
ENDMDL
MODEL 2
REMARK VINA RESULT:    -9.225     14.509     16.001
REMARK INTER + INTRA:          -9.255
REMARK INTER:                 -11.088
REMARK INTRA:                   1.833
REMARK UNBOUND:                 1.857
REMARK  5 active torsions:
REMARK  status: ('A' for Active; 'I' for Inactive)
REMARK    1  A    between atoms: O_2  and  C_13 
REMARK    2  A    between atoms: O_3  and  C_19 
REMARK    3  A    between atoms: O_5  and  C_17 
REMARK    4  A    between atoms: O_6  and  C_21 
REMARK    5  A    between atoms: C_8  and  C_10 
ROOT
ATOM      1  O   UNL d   1     -15.587  21.955  35.072  0.00  0.00    -0.309 OA
ATOM      2  O   UNL d   1     -14.971  24.885  35.264  0.00  0.00    -0.287 OA
ATOM      3  C   UNL d   1     -16.039  23.604  34.797  0.00  0.00     0.081 A 
ATOM      4  C   UNL d   1     -14.724  22.259  35.475  0.00  0.00     0.090 A 
ATOM      5  C   UNL d   1     -16.244  22.628  34.733  0.00  0.00     0.095 A 
ATOM      6  C   UNL d   1     -15.176  23.908  35.200  0.00  0.00     0.190 A 
ATOM      7  C   UNL d   1     -14.518  23.236  35.539  0.00  0.00     0.094 A 
ATOM      8  C   UNL d   1     -16.714  24.316  34.448  0.00  0.00     0.085 A 
ATOM      9  C   UNL d   1     -17.139  22.295  34.315  0.00  0.00     0.075 A 
ATOM     10  C   UNL d   1     -17.829  22.990  33.959  0.00  0.00     0.071 A 
ATOM     11  C   UNL d   1     -17.615  24.007  34.026  0.00  0.00     0.074 A 
ENDROOT
BRANCH   4  12
ATOM     12  C   UNL d   1     -14.066  21.587  35.814  0.00  0.00     0.001 A 
ATOM     13  C   UNL d   1     -13.433  21.142  35.180  0.00  0.00     0.054 A 
ATOM     14  C   UNL d   1     -12.776  20.470  35.520  0.00  0.00     0.102 A 
ATOM     15  C   UNL d   1     -12.751  20.242  36.493  0.00  0.00     0.099 A 
ATOM     16  C   UNL d   1     -13.383  20.686  37.127  0.00  0.00     0.040 A 
ATOM     17  C   UNL d   1     -14.041  21.359  36.788  0.00  0.00     0.017 A 
BRANCH  14  18
ATOM     18  O   UNL d   1     -12.143  20.025  34.886  0.00  0.00    -0.353 OA
ATOM     19  C   UNL d   1     -12.054  20.363  33.949  0.00  0.00     0.210 C 
ENDBRANCH  14  18
BRANCH  15  20
ATOM     20  O   UNL d   1     -12.093  19.569  36.832  0.00  0.00    -0.358 OA
ATOM     21  H   UNL d   1     -11.538  19.755  37.038  0.00  0.00     0.217 HD
ENDBRANCH  15  20
ENDBRANCH   4  12
BRANCH   8  22
ATOM     22  O   UNL d   1     -16.499  25.290  34.517  0.00  0.00    -0.360 OA
ATOM     23  H   UNL d   1     -16.823  25.703  34.188  0.00  0.00     0.217 HD
ENDBRANCH   8  22
BRANCH  10  24
ATOM     24  O   UNL d   1     -18.691  22.682  33.557  0.00  0.00    -0.361 OA
ATOM     25  H   UNL d   1     -18.883  22.099  33.644  0.00  0.00     0.217 HD
ENDBRANCH  10  24
TORSDOF 5
ENDMDL
MODEL 3
REMARK VINA RESULT:    -8.971     14.158     15.238
REMARK INTER + INTRA:          -8.950
REMARK INTER:                 -11.201
REMARK INTRA:                   2.251
REMARK UNBOUND:                 1.857
REMARK  5 active torsions:
REMARK  status: ('A' for Active; 'I' for Inactive)
REMARK    1  A    between atoms: O_2  and  C_13 
REMARK    2  A    between atoms: O_3  and  C_19 
REMARK    3  A    between atoms: O_5  and  C_17 
REMARK    4  A    between atoms: O_6  and  C_21 
REMARK    5  A    between atoms: C_8  and  C_10 
ROOT
ATOM      1  O   UNL d   1     -14.794  22.487  36.190  0.00  0.00    -0.309 OA
ATOM      2  O   UNL d   1     -13.382  21.999  33.589  0.00  0.00    -0.287 OA
ATOM      3  C   UNL d   1     -13.665  21.575  35.244  0.00  0.00     0.081 A 
ATOM      4  C   UNL d   1     -14.981  23.073  35.401  0.00  0.00     0.090 A 
ATOM      5  C   UNL d   1     -14.136  21.738  36.111  0.00  0.00     0.095 A 
ATOM      6  C   UNL d   1     -13.852  22.161  34.456  0.00  0.00     0.190 A 
ATOM      7  C   UNL d   1     -14.510  22.910  34.534  0.00  0.00     0.094 A 
ATOM      8  C   UNL d   1     -12.978  20.799  35.147  0.00  0.00     0.085 A 
ATOM      9  C   UNL d   1     -13.952  21.136  36.941  0.00  0.00     0.075 A 
ATOM     10  C   UNL d   1     -13.268  20.354  36.867  0.00  0.00     0.071 A 
ATOM     11  C   UNL d   1     -12.778  20.185  35.964  0.00  0.00     0.074 A 
ENDROOT
BRANCH   4  12
ATOM     12  C   UNL d   1     -15.639  23.822  35.480  0.00  0.00     0.001 A 
ATOM     13  C   UNL d   1     -16.301  23.830  36.230  0.00  0.00     0.054 A 
ATOM     14  C   UNL d   1     -16.959  24.578  36.309  0.00  0.00     0.102 A 
ATOM     15  C   UNL d   1     -16.955  25.320  35.638  0.00  0.00     0.099 A 
ATOM     16  C   UNL d   1     -16.294  25.312  34.888  0.00  0.00     0.040 A 
ATOM     17  C   UNL d   1     -15.636  24.563  34.809  0.00  0.00     0.017 A 
BRANCH  14  18
ATOM     18  O   UNL d   1     -17.620  24.586  37.059  0.00  0.00    -0.353 OA
ATOM     19  C   UNL d   1     -17.383  24.175  37.939  0.00  0.00     0.210 C 
ENDBRANCH  14  18
BRANCH  15  20
ATOM     20  O   UNL d   1     -17.613  26.069  35.716  0.00  0.00    -0.358 OA
ATOM     21  H   UNL d   1     -17.513  26.602  35.418  0.00  0.00     0.217 HD
ENDBRANCH  15  20
ENDBRANCH   4  12
BRANCH   8  22
ATOM     22  O   UNL d   1     -12.513  20.646  34.275  0.00  0.00    -0.360 OA
ATOM     23  H   UNL d   1     -12.782  20.821  33.746  0.00  0.00     0.217 HD
ENDBRANCH   8  22
BRANCH  10  24
ATOM     24  O   UNL d   1     -13.083  19.771  37.658  0.00  0.00    -0.361 OA
ATOM     25  H   UNL d   1     -13.554  19.542  37.991  0.00  0.00     0.217 HD
ENDBRANCH  10  24
TORSDOF 5
ENDMDL
MODEL 4
REMARK VINA RESULT:    -8.954      1.596      2.146
REMARK INTER + INTRA:          -8.929
REMARK INTER:                 -10.794
REMARK INTRA:                   1.865
REMARK UNBOUND:                 1.857
REMARK  5 active torsions:
REMARK  status: ('A' for Active; 'I' for Inactive)
REMARK    1  A    between atoms: O_2  and  C_13 
REMARK    2  A    between atoms: O_3  and  C_19 
REMARK    3  A    between atoms: O_5  and  C_17 
REMARK    4  A    between atoms: O_6  and  C_21 
REMARK    5  A    between atoms: C_8  and  C_10 
ROOT
ATOM      1  O   UNL d   1      -4.124  21.795  45.045  0.00  0.00    -0.309 OA
ATOM      2  O   UNL d   1      -2.025  20.574  46.806  0.00  0.00    -0.287 OA
ATOM      3  C   UNL d   1      -3.292  20.397  45.639  0.00  0.00     0.081 A 
ATOM      4  C   UNL d   1      -3.557  22.379  45.626  0.00  0.00     0.090 A 
ATOM      5  C   UNL d   1      -3.992  20.804  45.052  0.00  0.00     0.095 A 
ATOM      6  C   UNL d   1      -2.724  20.981  46.219  0.00  0.00     0.190 A 
ATOM      7  C   UNL d   1      -2.857  21.972  46.213  0.00  0.00     0.094 A 
ATOM      8  C   UNL d   1      -3.142  19.366  45.656  0.00  0.00     0.085 A 
ATOM      9  C   UNL d   1      -4.590  20.209  44.442  0.00  0.00     0.075 A 
ATOM     10  C   UNL d   1      -4.458  19.175  44.443  0.00  0.00     0.071 A 
ATOM     11  C   UNL d   1      -3.730  18.752  45.054  0.00  0.00     0.074 A 
ENDROOT
BRANCH   4  12
ATOM     12  C   UNL d   1      -3.689  23.370  45.619  0.00  0.00     0.001 A 
ATOM     13  C   UNL d   1      -4.059  23.830  46.426  0.00  0.00     0.054 A 
ATOM     14  C   UNL d   1      -4.192  24.822  46.420  0.00  0.00     0.102 A 
ATOM     15  C   UNL d   1      -3.954  25.352  45.606  0.00  0.00     0.099 A 
ATOM     16  C   UNL d   1      -3.584  24.892  44.800  0.00  0.00     0.040 A 
ATOM     17  C   UNL d   1      -3.452  23.901  44.806  0.00  0.00     0.017 A 
BRANCH  14  18
ATOM     18  O   UNL d   1      -4.562  25.282  47.227  0.00  0.00    -0.353 OA
ATOM     19  C   UNL d   1      -4.756  24.758  48.056  0.00  0.00     0.210 C 
ENDBRANCH  14  18
BRANCH  15  20
ATOM     20  O   UNL d   1      -4.087  26.344  45.600  0.00  0.00    -0.358 OA
ATOM     21  H   UNL d   1      -4.549  26.597  45.927  0.00  0.00     0.217 HD
ENDBRANCH  15  20
ENDBRANCH   4  12
BRANCH   8  22
ATOM     22  O   UNL d   1      -2.440  18.970  46.247  0.00  0.00    -0.360 OA
ATOM     23  H   UNL d   1      -1.867  18.880  46.029  0.00  0.00     0.217 HD
ENDBRANCH   8  22
BRANCH  10  24
ATOM     24  O   UNL d   1      -5.028  18.595  43.861  0.00  0.00    -0.361 OA
ATOM     25  H   UNL d   1      -5.573  18.805  43.652  0.00  0.00     0.217 HD
ENDBRANCH  10  24
TORSDOF 5
ENDMDL
MODEL 5
REMARK VINA RESULT:    -8.900     14.665     16.283
REMARK INTER + INTRA:          -8.864
REMARK INTER:                 -10.874
REMARK INTRA:                   2.010
REMARK UNBOUND:                 1.857
REMARK  5 active torsions:
REMARK  status: ('A' for Active; 'I' for Inactive)
REMARK    1  A    between atoms: O_2  and  C_13 
REMARK    2  A    between atoms: O_3  and  C_19 
REMARK    3  A    between atoms: O_5  and  C_17 
REMARK    4  A    between atoms: O_6  and  C_21 
REMARK    5  A    between atoms: C_8  and  C_10 
ROOT
ATOM      1  O   UNL d   1     -15.702  23.079  36.386  0.00  0.00    -0.309 OA
ATOM      2  O   UNL d   1     -18.231  23.032  34.774  0.00  0.00    -0.287 OA
ATOM      3  C   UNL d   1     -17.377  23.482  36.212  0.00  0.00     0.081 A 
ATOM      4  C   UNL d   1     -15.712  22.646  35.485  0.00  0.00     0.090 A 
ATOM      5  C   UNL d   1     -16.534  23.497  36.750  0.00  0.00     0.095 A 
ATOM      6  C   UNL d   1     -17.388  23.048  35.311  0.00  0.00     0.190 A 
ATOM      7  C   UNL d   1     -16.555  22.630  34.948  0.00  0.00     0.094 A 
ATOM      8  C   UNL d   1     -18.252  23.913  36.578  0.00  0.00     0.085 A 
ATOM      9  C   UNL d   1     -16.507  23.945  37.690  0.00  0.00     0.075 A 
ATOM     10  C   UNL d   1     -17.371  24.382  38.075  0.00  0.00     0.071 A 
ATOM     11  C   UNL d   1     -18.248  24.366  37.516  0.00  0.00     0.074 A 
ENDROOT
BRANCH   4  12
ATOM     12  C   UNL d   1     -14.880  22.228  35.122  0.00  0.00     0.001 A 
ATOM     13  C   UNL d   1     -14.333  21.620  35.697  0.00  0.00     0.054 A 
ATOM     14  C   UNL d   1     -13.500  21.202  35.334  0.00  0.00     0.102 A 
ATOM     15  C   UNL d   1     -13.214  21.392  34.394  0.00  0.00     0.099 A 
ATOM     16  C   UNL d   1     -13.761  22.000  33.819  0.00  0.00     0.040 A 
ATOM     17  C   UNL d   1     -14.594  22.418  34.182  0.00  0.00     0.017 A 
BRANCH  14  18
ATOM     18  O   UNL d   1     -12.954  20.594  35.909  0.00  0.00    -0.353 OA
ATOM     19  C   UNL d   1     -13.284  20.334  36.816  0.00  0.00     0.210 C 
ENDBRANCH  14  18
BRANCH  15  20
ATOM     20  O   UNL d   1     -12.382  20.974  34.031  0.00  0.00    -0.358 OA
ATOM     21  H   UNL d   1     -12.378  20.739  33.457  0.00  0.00     0.217 HD
ENDBRANCH  15  20
ENDBRANCH   4  12
BRANCH   8  22
ATOM     22  O   UNL d   1     -19.089  23.891  36.032  0.00  0.00    -0.360 OA
ATOM     23  H   UNL d   1     -19.620  23.696  36.286  0.00  0.00     0.217 HD
ENDBRANCH   8  22
BRANCH  10  24
ATOM     24  O   UNL d   1     -17.356  24.815  38.977  0.00  0.00    -0.361 OA
ATOM     25  H   UNL d   1     -17.828  24.730  39.369  0.00  0.00     0.217 HD
ENDBRANCH  10  24
TORSDOF 5
ENDMDL
