MODEL 1
REMARK VINA RESULT:   -10.476      0.000      0.000
REMARK INTER + INTRA:         -10.399
REMARK INTER:                 -11.495
REMARK INTRA:                   1.096
REMARK UNBOUND:                 1.302
REMARK  3 active torsions:
REMARK  status: ('A' for Active; 'I' for Inactive)
REMARK    1  A    between atoms: O_2  and  C_10 
REMARK    2  A    between atoms: O_4  and  C_13 
REMARK    3  A    between atoms: C_7  and  C_9 
ROOT
ATOM      1  O   UNL d   1      -5.128  19.420  45.590  0.00  0.00    -0.309 OA
ATOM      2  O   UNL d   1      -3.759  20.805  43.309  0.00  0.00    -0.287 OA
ATOM      3  C   UNL d   1      -4.252  20.779  44.969  0.00  0.00     0.081 A 
ATOM      4  C   UNL d   1      -4.709  20.317  45.729  0.00  0.00     0.095 A 
ATOM      5  C   UNL d   1      -5.092  18.985  44.690  0.00  0.00     0.090 A 
ATOM      6  C   UNL d   1      -4.215  20.344  44.069  0.00  0.00     0.190 A 
ATOM      7  C   UNL d   1      -3.811  21.713  45.099  0.00  0.00     0.085 A 
ATOM      8  C   UNL d   1      -4.635  19.447  43.930  0.00  0.00     0.094 A 
ATOM      9  C   UNL d   1      -4.755  20.757  46.672  0.00  0.00     0.075 A 
ATOM     10  C   UNL d   1      -4.320  21.691  46.825  0.00  0.00     0.071 A 
ATOM     11  C   UNL d   1      -3.845  22.172  46.033  0.00  0.00     0.074 A 
ENDROOT
BRANCH   5  12
ATOM     12  C   UNL d   1      -5.511  18.088  44.551  0.00  0.00    -0.002 A 
ATOM     13  C   UNL d   1      -4.950  17.313  44.260  0.00  0.00     0.014 A 
ATOM     14  C   UNL d   1      -5.370  16.416  44.121  0.00  0.00     0.001 A 
ATOM     15  C   UNL d   1      -6.351  16.294  44.273  0.00  0.00     0.000 A 
ATOM     16  C   UNL d   1      -6.912  17.069  44.564  0.00  0.00     0.001 A 
ATOM     17  C   UNL d   1      -6.492  17.966  44.703  0.00  0.00     0.014 A 
ENDBRANCH   5  12
BRANCH   7  18
ATOM     18  O   UNL d   1      -3.357  22.165  44.331  0.00  0.00    -0.360 OA
ATOM     19  H   UNL d   1      -3.565  22.712  44.128  0.00  0.00     0.217 HD
ENDBRANCH   7  18
BRANCH  10  20
ATOM     20  O   UNL d   1      -4.359  22.123  47.726  0.00  0.00    -0.361 OA
ATOM     21  H   UNL d   1      -4.464  22.732  47.774  0.00  0.00     0.217 HD
ENDBRANCH  10  20
TORSDOF 3
ENDMDL
MODEL 2
REMARK VINA RESULT:    -9.789      1.397      2.107
REMARK INTER + INTRA:          -9.632
REMARK INTER:                 -10.728
REMARK INTRA:                   1.096
REMARK UNBOUND:                 1.302
REMARK  3 active torsions:
REMARK  status: ('A' for Active; 'I' for Inactive)
REMARK    1  A    between atoms: O_2  and  C_10 
REMARK    2  A    between atoms: O_4  and  C_13 
REMARK    3  A    between atoms: C_7  and  C_9 
ROOT
ATOM      1  O   UNL d   1      -4.454  20.052  44.640  0.00  0.00    -0.309 OA
ATOM      2  O   UNL d   1      -2.388  19.459  46.733  0.00  0.00    -0.287 OA
ATOM      3  C   UNL d   1      -3.142  20.574  45.642  0.00  0.00     0.081 A 
ATOM      4  C   UNL d   1      -3.830  20.771  44.944  0.00  0.00     0.095 A 
ATOM      5  C   UNL d   1      -4.389  19.135  45.033  0.00  0.00     0.090 A 
ATOM      6  C   UNL d   1      -3.077  19.657  46.035  0.00  0.00     0.190 A 
ATOM      7  C   UNL d   1      -2.485  21.313  45.969  0.00  0.00     0.085 A 
ATOM      8  C   UNL d   1      -3.701  18.937  45.730  0.00  0.00     0.094 A 
ATOM      9  C   UNL d   1      -3.910  21.722  44.526  0.00  0.00     0.075 A 
ATOM     10  C   UNL d   1      -3.264  22.477  44.838  0.00  0.00     0.071 A 
ATOM     11  C   UNL d   1      -2.547  22.271  45.564  0.00  0.00     0.074 A 
ENDROOT
BRANCH   5  12
ATOM     12  C   UNL d   1      -5.013  18.415  44.728  0.00  0.00    -0.002 A 
ATOM     13  C   UNL d   1      -5.999  18.520  44.857  0.00  0.00     0.014 A 
ATOM     14  C   UNL d   1      -6.623  17.801  44.553  0.00  0.00     0.001 A 
ATOM     15  C   UNL d   1      -6.261  16.976  44.119  0.00  0.00     0.000 A 
ATOM     16  C   UNL d   1      -5.275  16.870  43.990  0.00  0.00     0.001 A 
ATOM     17  C   UNL d   1      -4.651  17.590  44.294  0.00  0.00     0.014 A 
ENDBRANCH   5  12
BRANCH   7  18
ATOM     18  O   UNL d   1      -1.800  21.104  46.667  0.00  0.00    -0.360 OA
ATOM     19  H   UNL d   1      -1.335  21.500  46.773  0.00  0.00     0.217 HD
ENDBRANCH   7  18
BRANCH  10  20
ATOM     20  O   UNL d   1      -3.332  23.393  44.442  0.00  0.00    -0.361 OA
ATOM     21  H   UNL d   1      -2.852  23.632  44.130  0.00  0.00     0.217 HD
ENDBRANCH  10  20
TORSDOF 3
ENDMDL
MODEL 3
REMARK VINA RESULT:    -9.628      1.533      4.512
REMARK INTER + INTRA:          -9.452
REMARK INTER:                 -10.566
REMARK INTRA:                   1.114
REMARK UNBOUND:                 1.302
REMARK  3 active torsions:
REMARK  status: ('A' for Active; 'I' for Inactive)
REMARK    1  A    between atoms: O_2  and  C_10 
REMARK    2  A    between atoms: O_4  and  C_13 
REMARK    3  A    between atoms: C_7  and  C_9 
ROOT
ATOM      1  O   UNL d   1      -5.318  19.404  45.105  0.00  0.00    -0.309 OA
ATOM      2  O   UNL d   1      -3.293  17.752  43.632  0.00  0.00    -0.287 OA
ATOM      3  C   UNL d   1      -4.880  17.934  44.301  0.00  0.00     0.081 A 
ATOM      4  C   UNL d   1      -5.555  18.484  44.793  0.00  0.00     0.095 A 
ATOM      5  C   UNL d   1      -4.406  19.773  44.927  0.00  0.00     0.090 A 
ATOM      6  C   UNL d   1      -3.968  18.303  44.123  0.00  0.00     0.190 A 
ATOM      7  C   UNL d   1      -5.113  16.974  43.970  0.00  0.00     0.085 A 
ATOM      8  C   UNL d   1      -3.731  19.222  44.436  0.00  0.00     0.094 A 
ATOM      9  C   UNL d   1      -6.509  18.114  44.986  0.00  0.00     0.075 A 
ATOM     10  C   UNL d   1      -6.763  17.156  44.664  0.00  0.00     0.071 A 
ATOM     11  C   UNL d   1      -6.061  16.583  44.152  0.00  0.00     0.074 A 
ENDROOT
BRANCH   5  12
ATOM     12  C   UNL d   1      -4.168  20.693  45.240  0.00  0.00    -0.002 A 
ATOM     13  C   UNL d   1      -3.856  21.379  44.583  0.00  0.00     0.014 A 
ATOM     14  C   UNL d   1      -3.619  22.299  44.895  0.00  0.00     0.001 A 
ATOM     15  C   UNL d   1      -3.694  22.532  45.865  0.00  0.00     0.000 A 
ATOM     16  C   UNL d   1      -4.006  21.846  46.522  0.00  0.00     0.001 A 
ATOM     17  C   UNL d   1      -4.243  20.926  46.209  0.00  0.00     0.014 A 
ENDBRANCH   5  12
BRANCH   7  18
ATOM     18  O   UNL d   1      -4.430  16.433  43.480  0.00  0.00    -0.360 OA
ATOM     19  H   UNL d   1      -3.830  16.484  43.627  0.00  0.00     0.217 HD
ENDBRANCH   7  18
BRANCH  10  20
ATOM     20  O   UNL d   1      -7.677  16.791  44.844  0.00  0.00    -0.361 OA
ATOM     21  H   UNL d   1      -8.053  16.650  44.372  0.00  0.00     0.217 HD
ENDBRANCH  10  20
TORSDOF 3
ENDMDL
MODEL 4
REMARK VINA RESULT:    -9.553      1.503      4.815
REMARK INTER + INTRA:          -9.368
REMARK INTER:                 -10.379
REMARK INTRA:                   1.012
REMARK UNBOUND:                 1.302
REMARK  3 active torsions:
REMARK  status: ('A' for Active; 'I' for Inactive)
REMARK    1  A    between atoms: O_2  and  C_10 
REMARK    2  A    between atoms: O_4  and  C_13 
REMARK    3  A    between atoms: C_7  and  C_9 
ROOT
ATOM      1  O   UNL d   1      -4.266  21.040  46.728  0.00  0.00    -0.309 OA
ATOM      2  O   UNL d   1      -3.247  21.929  44.050  0.00  0.00    -0.287 OA
ATOM      3  C   UNL d   1      -4.208  20.852  45.007  0.00  0.00     0.081 A 
ATOM      4  C   UNL d   1      -4.547  20.555  45.900  0.00  0.00     0.095 A 
ATOM      5  C   UNL d   1      -3.645  21.821  46.664  0.00  0.00     0.090 A 
ATOM      6  C   UNL d   1      -3.587  21.633  44.943  0.00  0.00     0.190 A 
ATOM      7  C   UNL d   1      -4.492  20.356  44.137  0.00  0.00     0.085 A 
ATOM      8  C   UNL d   1      -3.306  22.118  45.771  0.00  0.00     0.094 A 
ATOM      9  C   UNL d   1      -5.195  19.743  45.984  0.00  0.00     0.075 A 
ATOM     10  C   UNL d   1      -5.492  19.233  45.125  0.00  0.00     0.071 A 
ATOM     11  C   UNL d   1      -5.139  19.542  44.196  0.00  0.00     0.074 A 
ENDROOT
BRANCH   5  12
ATOM     12  C   UNL d   1      -3.364  22.306  47.492  0.00  0.00    -0.002 A 
ATOM     13  C   UNL d   1      -3.979  22.972  47.915  0.00  0.00     0.014 A 
ATOM     14  C   UNL d   1      -3.697  23.456  48.743  0.00  0.00     0.001 A 
ATOM     15  C   UNL d   1      -2.801  23.275  49.148  0.00  0.00     0.000 A 
ATOM     16  C   UNL d   1      -2.186  22.610  48.725  0.00  0.00     0.001 A 
ATOM     17  C   UNL d   1      -2.467  22.125  47.897  0.00  0.00     0.014 A 
ENDBRANCH   5  12
BRANCH   7  18
ATOM     18  O   UNL d   1      -4.146  20.662  43.249  0.00  0.00    -0.360 OA
ATOM     19  H   UNL d   1      -3.835  21.195  43.205  0.00  0.00     0.217 HD
ENDBRANCH   7  18
BRANCH  10  20
ATOM     20  O   UNL d   1      -6.113  18.452  45.194  0.00  0.00    -0.361 OA
ATOM     21  H   UNL d   1      -6.704  18.510  45.015  0.00  0.00     0.217 HD
ENDBRANCH  10  20
TORSDOF 3
ENDMDL
MODEL 5
REMARK VINA RESULT:    -9.332     13.345     14.406
REMARK INTER + INTRA:          -9.122
REMARK INTER:                 -10.128
REMARK INTRA:                   1.006
REMARK UNBOUND:                 1.302
REMARK  3 active torsions:
REMARK  status: ('A' for Active; 'I' for Inactive)
REMARK    1  A    between atoms: O_2  and  C_10 
REMARK    2  A    between atoms: O_4  and  C_13 
REMARK    3  A    between atoms: C_7  and  C_9 
ROOT
ATOM      1  O   UNL d   1     -14.596  22.159  35.487  0.00  0.00    -0.309 OA
ATOM      2  O   UNL d   1     -12.681  21.306  33.341  0.00  0.00    -0.287 OA
ATOM      3  C   UNL d   1     -13.284  21.159  34.958  0.00  0.00     0.081 A 
ATOM      4  C   UNL d   1     -13.922  21.444  35.673  0.00  0.00     0.095 A 
ATOM      5  C   UNL d   1     -14.631  22.590  34.585  0.00  0.00     0.090 A 
ATOM      6  C   UNL d   1     -13.319  21.590  34.056  0.00  0.00     0.190 A 
ATOM      7  C   UNL d   1     -12.578  20.416  35.137  0.00  0.00     0.085 A 
ATOM      8  C   UNL d   1     -13.993  22.306  33.870  0.00  0.00     0.094 A 
ATOM      9  C   UNL d   1     -13.898  21.004  36.617  0.00  0.00     0.075 A 
ATOM     10  C   UNL d   1     -13.199  20.259  36.819  0.00  0.00     0.071 A 
ATOM     11  C   UNL d   1     -12.535  19.962  36.074  0.00  0.00     0.074 A 
ENDROOT
BRANCH   5  12
ATOM     12  C   UNL d   1     -15.304  23.306  34.399  0.00  0.00    -0.002 A 
ATOM     13  C   UNL d   1     -16.244  23.058  34.161  0.00  0.00     0.014 A 
ATOM     14  C   UNL d   1     -16.917  23.774  33.975  0.00  0.00     0.001 A 
ATOM     15  C   UNL d   1     -16.651  24.736  34.026  0.00  0.00     0.000 A 
ATOM     16  C   UNL d   1     -15.712  24.984  34.264  0.00  0.00     0.001 A 
ATOM     17  C   UNL d   1     -15.038  24.268  34.450  0.00  0.00     0.014 A 
ENDBRANCH   5  12
BRANCH   7  18
ATOM     18  O   UNL d   1     -11.944  20.139  34.414  0.00  0.00    -0.360 OA
ATOM     19  H   UNL d   1     -11.428  19.829  34.558  0.00  0.00     0.217 HD
ENDBRANCH   7  18
BRANCH  10  20
ATOM     20  O   UNL d   1     -13.167  19.830  37.722  0.00  0.00    -0.361 OA
ATOM     21  H   UNL d   1     -12.629  19.788  38.026  0.00  0.00     0.217 HD
ENDBRANCH  10  20
TORSDOF 3
ENDMDL
