MODEL 1
REMARK VINA RESULT:    -6.310      0.000      0.000
REMARK INTER + INTRA:          -6.310
REMARK INTER:                  -6.310
REMARK INTRA:                   0.000
REMARK UNBOUND:                 0.000
REMARK  0 active torsions:
REMARK  status: ('A' for Active; 'I' for Inactive)
ROOT
ATOM      1  N   UNL d   1      15.977  38.780   0.199  0.00  0.00    -0.420 N 
ATOM      2  C   UNL d   1      14.696  37.151   0.230  0.00  0.00    -0.021 A 
ATOM      3  C   UNL d   1      16.115  36.250  -0.867  0.00  0.00    -0.034 A 
ATOM      4  C   UNL d   1      15.048  36.357  -0.266  0.00  0.00     0.011 A 
ATOM      5  C   UNL d   1      13.424  36.493   0.637  0.00  0.00     0.012 A 
ATOM      6  C   UNL d   1      13.778  35.700   0.141  0.00  0.00     0.008 A 
ATOM      7  C   UNL d   1      15.080  38.554   0.580  0.00  0.00     0.123 A 
ATOM      8  C   UNL d   1      16.315  37.979  -0.293  0.00  0.00     0.119 A 
ATOM      9  C   UNL d   1      14.344  37.944   0.725  0.00  0.00     0.018 C 
ATOM     10  C   UNL d   1      16.593  35.547  -1.393  0.00  0.00     0.016 C 
ATOM     11  C   UNL d   1      16.988  36.632  -1.173  0.00  0.00     0.016 C 
ATOM     12  H   UNL d   1      16.272  39.323   0.258  0.00  0.00     0.153 HD
ENDROOT
TORSDOF 0
ENDMDL
MODEL 2
REMARK VINA RESULT:    -6.286      0.553      2.569
REMARK INTER + INTRA:          -6.286
REMARK INTER:                  -6.286
REMARK INTRA:                   0.000
REMARK UNBOUND:                 0.000
REMARK  0 active torsions:
REMARK  status: ('A' for Active; 'I' for Inactive)
ROOT
ATOM      1  N   UNL d   1      15.722  38.704   0.527  0.00  0.00    -0.420 N 
ATOM      2  C   UNL d   1      16.169  36.985  -0.541  0.00  0.00    -0.021 A 
ATOM      3  C   UNL d   1      14.387  36.337   0.115  0.00  0.00    -0.034 A 
ATOM      4  C   UNL d   1      15.455  36.287  -0.489  0.00  0.00     0.011 A 
ATOM      5  C   UNL d   1      17.069  36.184  -1.414  0.00  0.00     0.012 A 
ATOM      6  C   UNL d   1      16.356  35.486  -1.362  0.00  0.00     0.008 A 
ATOM      7  C   UNL d   1      16.470  38.364  -0.043  0.00  0.00     0.123 A 
ATOM      8  C   UNL d   1      15.018  37.996   0.569  0.00  0.00     0.119 A 
ATOM      9  C   UNL d   1      16.882  37.684  -0.593  0.00  0.00     0.018 C 
ATOM     10  C   UNL d   1      13.597  35.742   0.259  0.00  0.00     0.016 C 
ATOM     11  C   UNL d   1      13.736  36.821   0.701  0.00  0.00     0.016 C 
ATOM     12  H   UNL d   1      15.698  39.258   0.806  0.00  0.00     0.153 HD
ENDROOT
TORSDOF 0
ENDMDL
MODEL 3
REMARK VINA RESULT:    -5.796     13.650     15.204
REMARK INTER + INTRA:          -5.796
REMARK INTER:                  -5.796
REMARK INTRA:                   0.000
REMARK UNBOUND:                 0.000
REMARK  0 active torsions:
REMARK  status: ('A' for Active; 'I' for Inactive)
ROOT
ATOM      1  N   UNL d   1      21.413  28.116 -12.894  0.00  0.00    -0.420 N 
ATOM      2  C   UNL d   1      20.227  28.716 -11.304  0.00  0.00    -0.021 A 
ATOM      3  C   UNL d   1      19.482  30.051 -12.604  0.00  0.00    -0.034 A 
ATOM      4  C   UNL d   1      19.608  29.469 -11.530  0.00  0.00     0.011 A 
ATOM      5  C   UNL d   1      19.779  28.602  -9.889  0.00  0.00     0.012 A 
ATOM      6  C   UNL d   1      19.161  29.355 -10.115  0.00  0.00     0.008 A 
ATOM      7  C   UNL d   1      21.279  27.860 -11.937  0.00  0.00     0.123 A 
ATOM      8  C   UNL d   1      20.789  28.868 -13.104  0.00  0.00     0.119 A 
ATOM      9  C   UNL d   1      20.845  27.964 -11.078  0.00  0.00     0.018 C 
ATOM     10  C   UNL d   1      18.927  30.795 -12.974  0.00  0.00     0.016 C 
ATOM     11  C   UNL d   1      19.736  30.180 -13.563  0.00  0.00     0.016 C 
ATOM     12  H   UNL d   1      21.814  27.854 -13.288  0.00  0.00     0.153 HD
ENDROOT
TORSDOF 0
ENDMDL
MODEL 4
REMARK VINA RESULT:    -5.522     21.927     22.997
REMARK INTER + INTRA:          -5.522
REMARK INTER:                  -5.522
REMARK INTRA:                   0.000
REMARK UNBOUND:                 0.000
REMARK  0 active torsions:
REMARK  status: ('A' for Active; 'I' for Inactive)
ROOT
ATOM      1  N   UNL d   1       3.460  20.480 -12.359  0.00  0.00    -0.420 N 
ATOM      2  C   UNL d   1       5.004  19.548 -11.339  0.00  0.00    -0.021 A 
ATOM      3  C   UNL d   1       6.177  20.883 -12.271  0.00  0.00    -0.034 A 
ATOM      4  C   UNL d   1       5.903  19.943 -11.529  0.00  0.00     0.011 A 
ATOM      5  C   UNL d   1       5.514  18.516 -10.396  0.00  0.00     0.012 A 
ATOM      6  C   UNL d   1       6.413  18.911 -10.586  0.00  0.00     0.008 A 
ATOM      7  C   UNL d   1       3.566  19.726 -11.712  0.00  0.00     0.123 A 
ATOM      8  C   UNL d   1       4.365  20.864 -12.539  0.00  0.00     0.119 A 
ATOM      9  C   UNL d   1       4.106  19.154 -11.149  0.00  0.00     0.018 C 
ATOM     10  C   UNL d   1       6.998  21.376 -12.556  0.00  0.00     0.016 C 
ATOM     11  C   UNL d   1       5.901  21.599 -12.913  0.00  0.00     0.016 C 
ATOM     12  H   UNL d   1       2.925  20.676 -12.606  0.00  0.00     0.153 HD
ENDROOT
TORSDOF 0
ENDMDL
MODEL 5
REMARK VINA RESULT:    -5.479     30.030     31.400
REMARK INTER + INTRA:          -5.479
REMARK INTER:                  -5.479
REMARK INTRA:                   0.000
REMARK UNBOUND:                 0.000
REMARK  0 active torsions:
REMARK  status: ('A' for Active; 'I' for Inactive)
ROOT
ATOM      1  N   UNL d   1      14.784  27.171 -31.711  0.00  0.00    -0.420 N 
ATOM      2  C   UNL d   1      14.790  26.428 -29.776  0.00  0.00    -0.021 A 
ATOM      3  C   UNL d   1      15.276  28.304 -29.255  0.00  0.00    -0.034 A 
ATOM      4  C   UNL d   1      15.014  27.115 -29.085  0.00  0.00     0.011 A 
ATOM      5  C   UNL d   1      14.621  25.316 -28.800  0.00  0.00     0.012 A 
ATOM      6  C   UNL d   1      14.845  26.004 -28.111  0.00  0.00     0.008 A 
ATOM      7  C   UNL d   1      14.622  26.295 -31.257  0.00  0.00     0.123 A 
ATOM      8  C   UNL d   1      15.007  27.846 -31.009  0.00  0.00     0.119 A 
ATOM      9  C   UNL d   1      14.566  25.741 -30.466  0.00  0.00     0.018 C 
ATOM     10  C   UNL d   1      15.513  29.090 -28.686  0.00  0.00     0.016 C 
ATOM     11  C   UNL d   1      15.405  29.093 -29.856  0.00  0.00     0.016 C 
ATOM     12  H   UNL d   1      14.752  27.277 -32.321  0.00  0.00     0.153 HD
ENDROOT
TORSDOF 0
ENDMDL
