MODEL 1
REMARK VINA RESULT:    -7.847      0.000      0.000
REMARK INTER + INTRA:          -7.411
REMARK INTER:                  -8.414
REMARK INTRA:                   1.003
REMARK UNBOUND:                 1.353
REMARK  3 active torsions:
REMARK  status: ('A' for Active; 'I' for Inactive)
REMARK    1  A    between atoms: O_2  and  C_10 
REMARK    2  A    between atoms: O_4  and  C_13 
REMARK    3  A    between atoms: C_7  and  C_9 
ROOT
ATOM      1  O   UNL d   1     -37.624  23.719  -4.447  0.00  0.00    -0.309 OA
ATOM      2  O   UNL d   1     -35.221  24.325  -2.756  0.00  0.00    -0.287 OA
ATOM      3  C   UNL d   1     -36.928  24.433  -3.031  0.00  0.00     0.081 A 
ATOM      4  C   UNL d   1     -37.729  24.231  -3.595  0.00  0.00     0.095 A 
ATOM      5  C   UNL d   1     -36.718  23.409  -4.736  0.00  0.00     0.090 A 
ATOM      6  C   UNL d   1     -36.022  24.123  -3.320  0.00  0.00     0.190 A 
ATOM      7  C   UNL d   1     -37.022  24.965  -2.141  0.00  0.00     0.085 A 
ATOM      8  C   UNL d   1     -35.917  23.611  -4.173  0.00  0.00     0.094 A 
ATOM      9  C   UNL d   1     -38.679  24.547  -3.307  0.00  0.00     0.075 A 
ATOM     10  C   UNL d   1     -38.796  25.081  -2.421  0.00  0.00     0.071 A 
ATOM     11  C   UNL d   1     -37.962  25.291  -1.834  0.00  0.00     0.074 A 
ENDROOT
BRANCH   5  12
ATOM     12  C   UNL d   1     -36.614  22.897  -5.589  0.00  0.00    -0.002 A 
ATOM     13  C   UNL d   1     -36.533  23.384  -6.458  0.00  0.00     0.014 A 
ATOM     14  C   UNL d   1     -36.428  22.872  -7.311  0.00  0.00     0.001 A 
ATOM     15  C   UNL d   1     -36.404  21.873  -7.294  0.00  0.00     0.000 A 
ATOM     16  C   UNL d   1     -36.484  21.385  -6.424  0.00  0.00     0.001 A 
ATOM     17  C   UNL d   1     -36.589  21.897  -5.572  0.00  0.00     0.014 A 
ENDBRANCH   5  12
BRANCH   7  18
ATOM     18  O   UNL d   1     -36.214  25.161  -1.585  0.00  0.00    -0.360 OA
ATOM     19  H   UNL d   1     -36.102  25.740  -1.395  0.00  0.00     0.217 HD
ENDBRANCH   7  18
BRANCH  10  20
ATOM     20  O   UNL d   1     -39.704  25.389  -2.135  0.00  0.00    -0.361 OA
ATOM     21  H   UNL d   1     -39.770  25.715  -1.612  0.00  0.00     0.217 HD
ENDBRANCH  10  20
TORSDOF 3
ENDMDL
MODEL 2
REMARK VINA RESULT:    -7.674     17.886     19.278
REMARK INTER + INTRA:          -7.218
REMARK INTER:                  -8.627
REMARK INTRA:                   1.409
REMARK UNBOUND:                 1.353
REMARK  3 active torsions:
REMARK  status: ('A' for Active; 'I' for Inactive)
REMARK    1  A    between atoms: O_2  and  C_10 
REMARK    2  A    between atoms: O_4  and  C_13 
REMARK    3  A    between atoms: C_7  and  C_9 
ROOT
ATOM      1  O   UNL d   1     -18.949  17.958  -4.657  0.00  0.00    -0.309 OA
ATOM      2  O   UNL d   1     -18.441  19.237  -1.992  0.00  0.00    -0.287 OA
ATOM      3  C   UNL d   1     -17.952  18.158  -3.255  0.00  0.00     0.081 A 
ATOM      4  C   UNL d   1     -18.122  17.732  -4.144  0.00  0.00     0.095 A 
ATOM      5  C   UNL d   1     -19.607  18.611  -4.282  0.00  0.00     0.090 A 
ATOM      6  C   UNL d   1     -18.611  18.811  -2.880  0.00  0.00     0.190 A 
ATOM      7  C   UNL d   1     -17.095  17.932  -2.709  0.00  0.00     0.085 A 
ATOM      8  C   UNL d   1     -19.438  19.037  -3.394  0.00  0.00     0.094 A 
ATOM      9  C   UNL d   1     -17.445  17.050  -4.548  0.00  0.00     0.075 A 
ATOM     10  C   UNL d   1     -16.581  16.809  -4.018  0.00  0.00     0.071 A 
ATOM     11  C   UNL d   1     -16.405  17.253  -3.093  0.00  0.00     0.074 A 
ENDROOT
BRANCH   5  12
ATOM     12  C   UNL d   1     -20.435  18.837  -4.796  0.00  0.00    -0.002 A 
ATOM     13  C   UNL d   1     -21.194  19.303  -4.341  0.00  0.00     0.014 A 
ATOM     14  C   UNL d   1     -22.022  19.529  -4.855  0.00  0.00     0.001 A 
ATOM     15  C   UNL d   1     -22.090  19.289  -5.823  0.00  0.00     0.000 A 
ATOM     16  C   UNL d   1     -21.331  18.824  -6.278  0.00  0.00     0.001 A 
ATOM     17  C   UNL d   1     -20.504  18.597  -5.764  0.00  0.00     0.014 A 
ENDBRANCH   5  12
BRANCH   7  18
ATOM     18  O   UNL d   1     -16.936  18.364  -1.822  0.00  0.00    -0.360 OA
ATOM     19  H   UNL d   1     -17.412  18.471  -1.440  0.00  0.00     0.217 HD
ENDBRANCH   7  18
BRANCH  10  20
ATOM     20  O   UNL d   1     -15.925  16.156  -4.397  0.00  0.00    -0.361 OA
ATOM     21  H   UNL d   1     -15.437  15.976  -4.060  0.00  0.00     0.217 HD
ENDBRANCH  10  20
TORSDOF 3
ENDMDL
MODEL 3
REMARK VINA RESULT:    -7.403      6.285      9.328
REMARK INTER + INTRA:          -6.915
REMARK INTER:                  -7.915
REMARK INTRA:                   1.000
REMARK UNBOUND:                 1.353
REMARK  3 active torsions:
REMARK  status: ('A' for Active; 'I' for Inactive)
REMARK    1  A    between atoms: O_2  and  C_10 
REMARK    2  A    between atoms: O_4  and  C_13 
REMARK    3  A    between atoms: C_7  and  C_9 
ROOT
ATOM      1  O   UNL d   1     -34.205  17.879  -8.287  0.00  0.00    -0.309 OA
ATOM      2  O   UNL d   1     -35.469  17.076 -10.886  0.00  0.00    -0.287 OA
ATOM      3  C   UNL d   1     -34.233  16.866  -9.691  0.00  0.00     0.081 A 
ATOM      4  C   UNL d   1     -33.811  17.134  -8.825  0.00  0.00     0.095 A 
ATOM      5  C   UNL d   1     -35.020  18.356  -8.615  0.00  0.00     0.090 A 
ATOM      6  C   UNL d   1     -35.048  17.343 -10.020  0.00  0.00     0.190 A 
ATOM      7  C   UNL d   1     -33.834  16.092 -10.262  0.00  0.00     0.085 A 
ATOM      8  C   UNL d   1     -35.441  18.089  -9.481  0.00  0.00     0.094 A 
ATOM      9  C   UNL d   1     -32.962  16.646  -8.470  0.00  0.00     0.075 A 
ATOM     10  C   UNL d   1     -32.546  15.868  -9.025  0.00  0.00     0.071 A 
ATOM     11  C   UNL d   1     -32.985  15.590  -9.927  0.00  0.00     0.074 A 
ENDROOT
BRANCH   5  12
ATOM     12  C   UNL d   1     -35.414  19.101  -8.077  0.00  0.00    -0.002 A 
ATOM     13  C   UNL d   1     -35.138  20.046  -8.254  0.00  0.00     0.014 A 
ATOM     14  C   UNL d   1     -35.532  20.791  -7.716  0.00  0.00     0.001 A 
ATOM     15  C   UNL d   1     -36.201  20.592  -7.000  0.00  0.00     0.000 A 
ATOM     16  C   UNL d   1     -36.476  19.647  -6.823  0.00  0.00     0.001 A 
ATOM     17  C   UNL d   1     -36.083  18.902  -7.361  0.00  0.00     0.014 A 
ENDBRANCH   5  12
BRANCH   7  18
ATOM     18  O   UNL d   1     -34.263  15.833 -11.127  0.00  0.00    -0.360 OA
ATOM     19  H   UNL d   1     -33.946  15.500 -11.543  0.00  0.00     0.217 HD
ENDBRANCH   7  18
BRANCH  10  20
ATOM     20  O   UNL d   1     -31.731  15.393  -8.693  0.00  0.00    -0.361 OA
ATOM     21  H   UNL d   1     -31.459  15.576  -8.167  0.00  0.00     0.217 HD
ENDBRANCH  10  20
TORSDOF 3
ENDMDL
MODEL 4
REMARK VINA RESULT:    -7.371      1.742      2.426
REMARK INTER + INTRA:          -6.879
REMARK INTER:                  -7.884
REMARK INTRA:                   1.004
REMARK UNBOUND:                 1.353
REMARK  3 active torsions:
REMARK  status: ('A' for Active; 'I' for Inactive)
REMARK    1  A    between atoms: O_2  and  C_10 
REMARK    2  A    between atoms: O_4  and  C_13 
REMARK    3  A    between atoms: C_7  and  C_9 
ROOT
ATOM      1  O   UNL d   1     -36.378  25.318  -3.981  0.00  0.00    -0.309 OA
ATOM      2  O   UNL d   1     -37.673  23.437  -2.037  0.00  0.00    -0.287 OA
ATOM      3  C   UNL d   1     -37.627  24.975  -2.832  0.00  0.00     0.081 A 
ATOM      4  C   UNL d   1     -37.195  25.602  -3.480  0.00  0.00     0.095 A 
ATOM      5  C   UNL d   1     -35.992  24.408  -3.834  0.00  0.00     0.090 A 
ATOM      6  C   UNL d   1     -37.241  24.064  -2.685  0.00  0.00     0.190 A 
ATOM      7  C   UNL d   1     -38.479  25.256  -2.304  0.00  0.00     0.085 A 
ATOM      8  C   UNL d   1     -36.424  23.781  -3.186  0.00  0.00     0.094 A 
ATOM      9  C   UNL d   1     -37.586  26.554  -3.645  0.00  0.00     0.075 A 
ATOM     10  C   UNL d   1     -38.437  26.856  -3.126  0.00  0.00     0.071 A 
ATOM     11  C   UNL d   1     -38.887  26.203  -2.452  0.00  0.00     0.074 A 
ENDROOT
BRANCH   5  12
ATOM     12  C   UNL d   1     -35.174  24.124  -4.335  0.00  0.00    -0.002 A 
ATOM     13  C   UNL d   1     -35.257  23.764  -5.264  0.00  0.00     0.014 A 
ATOM     14  C   UNL d   1     -34.439  23.481  -5.765  0.00  0.00     0.001 A 
ATOM     15  C   UNL d   1     -33.538  23.557  -5.337  0.00  0.00     0.000 A 
ATOM     16  C   UNL d   1     -33.456  23.917  -4.407  0.00  0.00     0.001 A 
ATOM     17  C   UNL d   1     -34.274  24.201  -3.906  0.00  0.00     0.014 A 
ENDBRANCH   5  12
BRANCH   7  18
ATOM     18  O   UNL d   1     -38.903  24.621  -1.658  0.00  0.00    -0.360 OA
ATOM     19  H   UNL d   1     -38.689  24.582  -1.077  0.00  0.00     0.217 HD
ENDBRANCH   7  18
BRANCH  10  20
ATOM     20  O   UNL d   1     -38.820  27.768  -3.277  0.00  0.00    -0.361 OA
ATOM     21  H   UNL d   1     -38.496  28.271  -3.112  0.00  0.00     0.217 HD
ENDBRANCH  10  20
TORSDOF 3
ENDMDL
MODEL 5
REMARK VINA RESULT:    -7.365     17.435     18.812
REMARK INTER + INTRA:          -6.873
REMARK INTER:                  -7.885
REMARK INTRA:                   1.012
REMARK UNBOUND:                 1.353
REMARK  3 active torsions:
REMARK  status: ('A' for Active; 'I' for Inactive)
REMARK    1  A    between atoms: O_2  and  C_10 
REMARK    2  A    between atoms: O_4  and  C_13 
REMARK    3  A    between atoms: C_7  and  C_9 
ROOT
ATOM      1  O   UNL d   1     -18.981  18.077  -4.852  0.00  0.00    -0.309 OA
ATOM      2  O   UNL d   1     -20.817  19.872  -3.301  0.00  0.00    -0.287 OA
ATOM      3  C   UNL d   1     -20.480  18.934  -4.717  0.00  0.00     0.081 A 
ATOM      4  C   UNL d   1     -19.868  18.335  -5.234  0.00  0.00     0.095 A 
ATOM      5  C   UNL d   1     -18.706  18.417  -3.953  0.00  0.00     0.090 A 
ATOM      6  C   UNL d   1     -20.205  19.274  -3.818  0.00  0.00     0.190 A 
ATOM      7  C   UNL d   1     -21.407  19.211  -5.102  0.00  0.00     0.085 A 
ATOM      8  C   UNL d   1     -19.317  19.015  -3.436  0.00  0.00     0.094 A 
ATOM      9  C   UNL d   1     -20.141  17.973  -6.172  0.00  0.00     0.075 A 
ATOM     10  C   UNL d   1     -21.063  18.238  -6.577  0.00  0.00     0.071 A 
ATOM     11  C   UNL d   1     -21.700  18.861  -6.039  0.00  0.00     0.074 A 
ENDROOT
BRANCH   5  12
ATOM     12  C   UNL d   1     -17.818  18.158  -3.571  0.00  0.00    -0.002 A 
ATOM     13  C   UNL d   1     -17.049  18.795  -3.617  0.00  0.00     0.014 A 
ATOM     14  C   UNL d   1     -16.162  18.537  -3.235  0.00  0.00     0.001 A 
ATOM     15  C   UNL d   1     -16.044  17.641  -2.806  0.00  0.00     0.000 A 
ATOM     16  C   UNL d   1     -16.813  17.004  -2.760  0.00  0.00     0.001 A 
ATOM     17  C   UNL d   1     -17.700  17.262  -3.142  0.00  0.00     0.014 A 
ENDBRANCH   5  12
BRANCH   7  18
ATOM     18  O   UNL d   1     -22.010  19.810  -4.577  0.00  0.00    -0.360 OA
ATOM     19  H   UNL d   1     -22.160  20.370  -4.797  0.00  0.00     0.217 HD
ENDBRANCH   7  18
BRANCH  10  20
ATOM     20  O   UNL d   1     -21.334  17.896  -7.477  0.00  0.00    -0.361 OA
ATOM     21  H   UNL d   1     -20.933  17.568  -7.817  0.00  0.00     0.217 HD
ENDBRANCH  10  20
TORSDOF 3
ENDMDL
