MODEL 1
REMARK VINA RESULT:    -8.230      0.000      0.000
REMARK INTER + INTRA:          -8.181
REMARK INTER:                  -9.180
REMARK INTRA:                   0.999
REMARK UNBOUND:                 1.012
REMARK  3 active torsions:
REMARK  status: ('A' for Active; 'I' for Inactive)
REMARK    1  A    between atoms: O_2  and  C_10 
REMARK    2  A    between atoms: O_4  and  C_13 
REMARK    3  A    between atoms: C_7  and  C_9 
ROOT
ATOM      1  O   UNL d   1      19.043 -21.027   3.933  0.00  0.00    -0.309 OA
ATOM      2  O   UNL d   1      20.427 -22.409   1.658  0.00  0.00    -0.287 OA
ATOM      3  C   UNL d   1      19.470 -21.095   2.256  0.00  0.00     0.081 A 
ATOM      4  C   UNL d   1      19.008 -20.634   3.014  0.00  0.00     0.095 A 
ATOM      5  C   UNL d   1      19.539 -21.880   4.094  0.00  0.00     0.090 A 
ATOM      6  C   UNL d   1      19.966 -21.948   2.417  0.00  0.00     0.190 A 
ATOM      7  C   UNL d   1      19.442 -20.697   1.294  0.00  0.00     0.085 A 
ATOM      8  C   UNL d   1      20.000 -22.341   3.336  0.00  0.00     0.094 A 
ATOM      9  C   UNL d   1      18.488 -19.745   2.863  0.00  0.00     0.075 A 
ATOM     10  C   UNL d   1      18.447 -19.329   1.908  0.00  0.00     0.071 A 
ATOM     11  C   UNL d   1      18.928 -19.809   1.119  0.00  0.00     0.074 A 
ENDROOT
BRANCH   5  12
ATOM     12  C   UNL d   1      19.573 -22.273   5.013  0.00  0.00    -0.002 A 
ATOM     13  C   UNL d   1      20.297 -21.999   5.647  0.00  0.00     0.014 A 
ATOM     14  C   UNL d   1      20.331 -22.392   6.566  0.00  0.00     0.001 A 
ATOM     15  C   UNL d   1      19.643 -23.059   6.851  0.00  0.00     0.000 A 
ATOM     16  C   UNL d   1      18.919 -23.332   6.217  0.00  0.00     0.001 A 
ATOM     17  C   UNL d   1      18.885 -22.939   5.298  0.00  0.00     0.014 A 
ENDBRANCH   5  12
BRANCH   7  18
ATOM     18  O   UNL d   1      19.907 -21.167   0.543  0.00  0.00    -0.360 OA
ATOM     19  H   UNL d   1      20.521 -21.246   0.561  0.00  0.00     0.217 HD
ENDBRANCH   7  18
BRANCH  10  20
ATOM     20  O   UNL d   1      17.950 -18.476   1.752  0.00  0.00    -0.361 OA
ATOM     21  H   UNL d   1      18.201 -17.936   1.924  0.00  0.00     0.217 HD
ENDBRANCH  10  20
TORSDOF 3
ENDMDL
MODEL 2
REMARK VINA RESULT:    -8.181      1.756      3.169
REMARK INTER + INTRA:          -8.126
REMARK INTER:                  -9.167
REMARK INTRA:                   1.041
REMARK UNBOUND:                 1.012
REMARK  3 active torsions:
REMARK  status: ('A' for Active; 'I' for Inactive)
REMARK    1  A    between atoms: O_2  and  C_10 
REMARK    2  A    between atoms: O_4  and  C_13 
REMARK    3  A    between atoms: C_7  and  C_9 
ROOT
ATOM      1  O   UNL d   1      20.615 -23.687   3.557  0.00  0.00    -0.309 OA
ATOM      2  O   UNL d   1      20.056 -21.234   1.922  0.00  0.00    -0.287 OA
ATOM      3  C   UNL d   1      20.616 -22.870   2.029  0.00  0.00     0.081 A 
ATOM      4  C   UNL d   1      20.802 -23.687   2.574  0.00  0.00     0.095 A 
ATOM      5  C   UNL d   1      20.241 -22.869   3.994  0.00  0.00     0.090 A 
ATOM      6  C   UNL d   1      20.242 -22.052   2.467  0.00  0.00     0.190 A 
ATOM      7  C   UNL d   1      20.806 -22.856   1.006  0.00  0.00     0.085 A 
ATOM      8  C   UNL d   1      20.055 -22.051   3.449  0.00  0.00     0.094 A 
ATOM      9  C   UNL d   1      21.191 -24.547   2.133  0.00  0.00     0.075 A 
ATOM     10  C   UNL d   1      21.389 -24.555   1.110  0.00  0.00     0.071 A 
ATOM     11  C   UNL d   1      21.195 -23.704   0.543  0.00  0.00     0.074 A 
ENDROOT
BRANCH   5  12
ATOM     12  C   UNL d   1      20.054 -22.869   4.976  0.00  0.00    -0.002 A 
ATOM     13  C   UNL d   1      20.630 -22.335   5.595  0.00  0.00     0.014 A 
ATOM     14  C   UNL d   1      20.443 -22.334   6.577  0.00  0.00     0.001 A 
ATOM     15  C   UNL d   1      19.679 -22.868   6.941  0.00  0.00     0.000 A 
ATOM     16  C   UNL d   1      19.103 -23.402   6.322  0.00  0.00     0.001 A 
ATOM     17  C   UNL d   1      19.290 -23.402   5.340  0.00  0.00     0.014 A 
ENDBRANCH   5  12
BRANCH   7  18
ATOM     18  O   UNL d   1      20.616 -22.032   0.471  0.00  0.00    -0.360 OA
ATOM     19  H   UNL d   1      20.094 -21.993   0.139  0.00  0.00     0.217 HD
ENDBRANCH   7  18
BRANCH  10  20
ATOM     20  O   UNL d   1      21.762 -25.375   0.677  0.00  0.00    -0.361 OA
ATOM     21  H   UNL d   1      22.207 -25.324   0.248  0.00  0.00     0.217 HD
ENDBRANCH  10  20
TORSDOF 3
ENDMDL
MODEL 3
REMARK VINA RESULT:    -8.065      1.617      4.706
REMARK INTER + INTRA:          -7.996
REMARK INTER:                  -9.049
REMARK INTRA:                   1.053
REMARK UNBOUND:                 1.012
REMARK  3 active torsions:
REMARK  status: ('A' for Active; 'I' for Inactive)
REMARK    1  A    between atoms: O_2  and  C_10 
REMARK    2  A    between atoms: O_4  and  C_13 
REMARK    3  A    between atoms: C_7  and  C_9 
ROOT
ATOM      1  O   UNL d   1      18.488 -21.596   3.827  0.00  0.00    -0.309 OA
ATOM      2  O   UNL d   1      20.557 -20.702   5.807  0.00  0.00    -0.287 OA
ATOM      3  C   UNL d   1      19.264 -21.767   5.366  0.00  0.00     0.081 A 
ATOM      4  C   UNL d   1      18.574 -22.065   4.706  0.00  0.00     0.095 A 
ATOM      5  C   UNL d   1      19.091 -20.829   3.608  0.00  0.00     0.090 A 
ATOM      6  C   UNL d   1      19.867 -21.000   5.147  0.00  0.00     0.190 A 
ATOM      7  C   UNL d   1      19.366 -22.245   6.285  0.00  0.00     0.085 A 
ATOM      8  C   UNL d   1      19.781 -20.531   4.268  0.00  0.00     0.094 A 
ATOM      9  C   UNL d   1      17.939 -22.862   4.920  0.00  0.00     0.075 A 
ATOM     10  C   UNL d   1      18.023 -23.355   5.834  0.00  0.00     0.071 A 
ATOM     11  C   UNL d   1      18.741 -23.045   6.521  0.00  0.00     0.074 A 
ENDROOT
BRANCH   5  12
ATOM     12  C   UNL d   1      19.004 -20.361   2.729  0.00  0.00    -0.002 A 
ATOM     13  C   UNL d   1      18.658 -19.423   2.694  0.00  0.00     0.014 A 
ATOM     14  C   UNL d   1      18.571 -18.954   1.815  0.00  0.00     0.001 A 
ATOM     15  C   UNL d   1      18.831 -19.423   0.971  0.00  0.00     0.000 A 
ATOM     16  C   UNL d   1      19.178 -20.360   1.006  0.00  0.00     0.001 A 
ATOM     17  C   UNL d   1      19.264 -20.829   1.885  0.00  0.00     0.014 A 
ENDBRANCH   5  12
BRANCH   7  18
ATOM     18  O   UNL d   1      20.059 -21.938   6.938  0.00  0.00    -0.360 OA
ATOM     19  H   UNL d   1      20.327 -21.384   6.867  0.00  0.00     0.217 HD
ENDBRANCH   7  18
BRANCH  10  20
ATOM     20  O   UNL d   1      17.418 -24.122   6.049  0.00  0.00    -0.361 OA
ATOM     21  H   UNL d   1      17.020 -24.332   5.623  0.00  0.00     0.217 HD
ENDBRANCH  10  20
TORSDOF 3
ENDMDL
MODEL 4
REMARK VINA RESULT:    -7.646      2.249      4.695
REMARK INTER + INTRA:          -7.529
REMARK INTER:                  -8.594
REMARK INTRA:                   1.066
REMARK UNBOUND:                 1.012
REMARK  3 active torsions:
REMARK  status: ('A' for Active; 'I' for Inactive)
REMARK    1  A    between atoms: O_2  and  C_10 
REMARK    2  A    between atoms: O_4  and  C_13 
REMARK    3  A    between atoms: C_7  and  C_9 
ROOT
ATOM      1  O   UNL d   1      18.115 -21.824   1.715  0.00  0.00    -0.309 OA
ATOM      2  O   UNL d   1      20.785 -22.334   0.446  0.00  0.00    -0.287 OA
ATOM      3  C   UNL d   1      19.820 -22.091   1.863  0.00  0.00     0.081 A 
ATOM      4  C   UNL d   1      18.930 -21.922   2.287  0.00  0.00     0.095 A 
ATOM      5  C   UNL d   1      18.190 -21.897   0.721  0.00  0.00     0.090 A 
ATOM      6  C   UNL d   1      19.895 -22.164   0.869  0.00  0.00     0.190 A 
ATOM      7  C   UNL d   1      20.677 -22.195   2.446  0.00  0.00     0.085 A 
ATOM      8  C   UNL d   1      19.080 -22.066   0.297  0.00  0.00     0.094 A 
ATOM      9  C   UNL d   1      18.836 -21.844   3.321  0.00  0.00     0.075 A 
ATOM     10  C   UNL d   1      19.680 -21.944   3.923  0.00  0.00     0.071 A 
ATOM     11  C   UNL d   1      20.607 -22.121   3.482  0.00  0.00     0.074 A 
ENDROOT
BRANCH   5  12
ATOM     12  C   UNL d   1      17.375 -21.799   0.149  0.00  0.00    -0.002 A 
ATOM     13  C   UNL d   1      17.289 -21.018  -0.469  0.00  0.00     0.014 A 
ATOM     14  C   UNL d   1      16.474 -20.921  -1.040  0.00  0.00     0.001 A 
ATOM     15  C   UNL d   1      15.746 -21.604  -0.993  0.00  0.00     0.000 A 
ATOM     16  C   UNL d   1      15.832 -22.385  -0.375  0.00  0.00     0.001 A 
ATOM     17  C   UNL d   1      16.647 -22.483   0.196  0.00  0.00     0.014 A 
ENDBRANCH   5  12
BRANCH   7  18
ATOM     18  O   UNL d   1      21.562 -22.365   2.011  0.00  0.00    -0.360 OA
ATOM     19  H   UNL d   1      21.602 -22.756   1.532  0.00  0.00     0.217 HD
ENDBRANCH   7  18
BRANCH  10  20
ATOM     20  O   UNL d   1      19.601 -21.871   4.917  0.00  0.00    -0.361 OA
ATOM     21  H   UNL d   1      19.137 -21.545   5.167  0.00  0.00     0.217 HD
ENDBRANCH  10  20
TORSDOF 3
ENDMDL
MODEL 5
REMARK VINA RESULT:    -7.525     15.667     16.317
REMARK INTER + INTRA:          -7.393
REMARK INTER:                  -8.747
REMARK INTRA:                   1.353
REMARK UNBOUND:                 1.012
REMARK  3 active torsions:
REMARK  status: ('A' for Active; 'I' for Inactive)
REMARK    1  A    between atoms: O_2  and  C_10 
REMARK    2  A    between atoms: O_4  and  C_13 
REMARK    3  A    between atoms: C_7  and  C_9 
ROOT
ATOM      1  O   UNL d   1       4.323 -24.720   1.240  0.00  0.00    -0.309 OA
ATOM      2  O   UNL d   1       1.588 -24.281   2.391  0.00  0.00    -0.287 OA
ATOM      3  C   UNL d   1       2.604 -24.655   1.039  0.00  0.00     0.081 A 
ATOM      4  C   UNL d   1       3.516 -24.802   0.655  0.00  0.00     0.095 A 
ATOM      5  C   UNL d   1       4.219 -24.492   2.208  0.00  0.00     0.090 A 
ATOM      6  C   UNL d   1       2.500 -24.427   2.007  0.00  0.00     0.190 A 
ATOM      7  C   UNL d   1       1.754 -24.737   0.443  0.00  0.00     0.085 A 
ATOM      8  C   UNL d   1       3.307 -24.346   2.591  0.00  0.00     0.094 A 
ATOM      9  C   UNL d   1       3.641 -25.040  -0.351  0.00  0.00     0.075 A 
ATOM     10  C   UNL d   1       2.804 -25.127  -0.966  0.00  0.00     0.071 A 
ATOM     11  C   UNL d   1       1.855 -24.974  -0.567  0.00  0.00     0.074 A 
ENDROOT
BRANCH   5  12
ATOM     12  C   UNL d   1       5.026 -24.411   2.792  0.00  0.00    -0.002 A 
ATOM     13  C   UNL d   1       4.995 -23.838   3.611  0.00  0.00     0.014 A 
ATOM     14  C   UNL d   1       5.803 -23.756   4.195  0.00  0.00     0.001 A 
ATOM     15  C   UNL d   1       6.641 -24.248   3.960  0.00  0.00     0.000 A 
ATOM     16  C   UNL d   1       6.672 -24.821   3.142  0.00  0.00     0.001 A 
ATOM     17  C   UNL d   1       5.865 -24.903   2.557  0.00  0.00     0.014 A 
ENDBRANCH   5  12
BRANCH   7  18
ATOM     18  O   UNL d   1       0.847 -24.588   0.837  0.00  0.00    -0.360 OA
ATOM     19  H   UNL d   1       0.392 -24.994   0.729  0.00  0.00     0.217 HD
ENDBRANCH   7  18
BRANCH  10  20
ATOM     20  O   UNL d   1       2.913 -25.355  -1.934  0.00  0.00    -0.361 OA
ATOM     21  H   UNL d   1       2.424 -25.330  -2.314  0.00  0.00     0.217 HD
ENDBRANCH  10  20
TORSDOF 3
ENDMDL
