MODEL 1
REMARK VINA RESULT:   -12.960      0.000      0.000
REMARK INTER + INTRA:          -8.857
REMARK INTER:                 -17.442
REMARK INTRA:                   8.585
REMARK UNBOUND:                 8.650
REMARK  9 active torsions:
REMARK  status: ('A' for Active; 'I' for Inactive)
REMARK    1  A    between atoms: O_3  and  C_17 
REMARK    2  A    between atoms: O_4  and  C_18 
REMARK    3  A    between atoms: O_5  and  C_19 
REMARK    4  A    between atoms: O_7  and  C_32 
REMARK    5  A    between atoms: O_9  and  C_36 
REMARK    6  A    between atoms: O_10  and  C_40 
REMARK    7  A    between atoms: C_11  and  C_13 
REMARK    8  A    between atoms: C_15  and  C_20 
REMARK    9  A    between atoms: C_22  and  C_29 
ROOT
ATOM      1  O   UNL d   1      19.471 -24.480   0.552  0.00  0.00    -0.308 OA
ATOM      2  O   UNL d   1      21.018 -26.615  -1.020  0.00  0.00    -0.287 OA
ATOM      3  C   UNL d   1      20.936 -23.506   0.589  0.00  0.00     0.045 A 
ATOM      4  C   UNL d   1      20.474 -24.346   0.306  0.00  0.00     0.107 A 
ATOM      5  C   UNL d   1      20.975 -25.044  -0.207  0.00  0.00     0.082 A 
ATOM      6  C   UNL d   1      21.899 -23.363   0.359  0.00  0.00     0.082 A 
ATOM      7  C   UNL d   1      21.938 -24.901  -0.436  0.00  0.00     0.085 A 
ATOM      8  C   UNL d   1      22.400 -24.060  -0.153  0.00  0.00     0.075 A 
ATOM      9  C   UNL d   1      18.983 -25.353   0.260  0.00  0.00     0.090 A 
ATOM     10  C   UNL d   1      20.507 -25.924  -0.508  0.00  0.00     0.190 A 
ATOM     11  C   UNL d   1      19.505 -26.080  -0.273  0.00  0.00     0.094 A 
ENDROOT
BRANCH   3  12
ATOM     12  C   UNL d   1      20.435 -22.808   1.101  0.00  0.00     0.014 A 
ATOM     13  C   UNL d   1      20.352 -22.880   2.095  0.00  0.00     0.029 A 
ATOM     14  C   UNL d   1      19.851 -22.182   2.607  0.00  0.00    -0.001 A 
ATOM     15  C   UNL d   1      19.433 -21.412   2.125  0.00  0.00     0.017 A 
ATOM     16  C   UNL d   1      19.515 -21.340   1.131  0.00  0.00     0.038 A 
ATOM     17  C   UNL d   1      20.016 -22.038   0.619  0.00  0.00     0.076 A 
BRANCH  14  18
ATOM     18  C   UNL d   1      19.769 -22.254   3.601  0.00  0.00     0.090 A 
ATOM     19  O   UNL d   1      19.126 -22.906   4.003  0.00  0.00    -0.309 OA
ATOM     20  C   UNL d   1      19.043 -22.978   4.997  0.00  0.00     0.095 A 
ATOM     21  C   UNL d   1      19.603 -22.399   5.588  0.00  0.00     0.081 A 
ATOM     22  C   UNL d   1      18.369 -23.662   5.401  0.00  0.00     0.075 A 
ATOM     23  C   UNL d   1      20.246 -21.747   5.186  0.00  0.00     0.190 A 
ATOM     24  C   UNL d   1      19.528 -22.463   6.625  0.00  0.00     0.085 A 
ATOM     25  O   UNL d   1      20.807 -21.168   5.778  0.00  0.00    -0.287 OA
ATOM     26  C   UNL d   1      20.329 -21.675   4.192  0.00  0.00     0.094 A 
ATOM     27  C   UNL d   1      18.861 -23.140   7.052  0.00  0.00     0.074 A 
ATOM     28  C   UNL d   1      18.277 -23.743   6.436  0.00  0.00     0.071 A 
BRANCH  24  29
ATOM     29  O   UNL d   1      20.094 -21.878   7.208  0.00  0.00    -0.360 OA
ATOM     30  H   UNL d   1      19.965 -21.273   7.258  0.00  0.00     0.217 HD
ENDBRANCH  24  29
BRANCH  28  31
ATOM     31  O   UNL d   1      17.633 -24.396   6.834  0.00  0.00    -0.361 OA
ATOM     32  H   UNL d   1      17.023 -24.291   6.798  0.00  0.00     0.217 HD
ENDBRANCH  28  31
ENDBRANCH  14  18
BRANCH  17  33
ATOM     33  O   UNL d   1      20.099 -21.966  -0.375  0.00  0.00    -0.360 OA
ATOM     34  H   UNL d   1      19.696 -22.262  -0.742  0.00  0.00     0.217 HD
ENDBRANCH  17  33
ENDBRANCH   3  12
BRANCH   6  35
ATOM     35  O   UNL d   1      22.360 -22.522   0.642  0.00  0.00    -0.360 OA
ATOM     36  H   UNL d   1      22.146 -22.198   1.126  0.00  0.00     0.217 HD
ENDBRANCH   6  35
BRANCH   9  37
ATOM     37  C   UNL d   1      18.020 -25.492   0.492  0.00  0.00    -0.002 A 
ATOM     38  C   UNL d   1      17.706 -25.349   1.430  0.00  0.00     0.017 A 
ATOM     39  C   UNL d   1      16.743 -25.488   1.662  0.00  0.00     0.037 A 
ATOM     40  C   UNL d   1      16.094 -25.770   0.955  0.00  0.00     0.065 A 
ATOM     41  C   UNL d   1      16.408 -25.913   0.017  0.00  0.00     0.037 A 
ATOM     42  C   UNL d   1      17.372 -25.774  -0.215  0.00  0.00     0.017 A 
BRANCH  40  43
ATOM     43  O   UNL d   1      15.131 -25.909   1.187  0.00  0.00    -0.361 OA
ATOM     44  H   UNL d   1      14.896 -26.483   1.204  0.00  0.00     0.217 HD
ENDBRANCH  40  43
ENDBRANCH   9  37
BRANCH   7  45
ATOM     45  O   UNL d   1      22.439 -25.599  -0.948  0.00  0.00    -0.360 OA
ATOM     46  H   UNL d   1      22.961 -25.449  -1.246  0.00  0.00     0.217 HD
ENDBRANCH   7  45
TORSDOF 9
ENDMDL
MODEL 2
REMARK VINA RESULT:   -12.451      1.255      1.683
REMARK INTER + INTRA:          -8.169
REMARK INTER:                 -16.960
REMARK INTRA:                   8.792
REMARK UNBOUND:                 8.650
REMARK  9 active torsions:
REMARK  status: ('A' for Active; 'I' for Inactive)
REMARK    1  A    between atoms: O_3  and  C_17 
REMARK    2  A    between atoms: O_4  and  C_18 
REMARK    3  A    between atoms: O_5  and  C_19 
REMARK    4  A    between atoms: O_7  and  C_32 
REMARK    5  A    between atoms: O_9  and  C_36 
REMARK    6  A    between atoms: O_10  and  C_40 
REMARK    7  A    between atoms: C_11  and  C_13 
REMARK    8  A    between atoms: C_15  and  C_20 
REMARK    9  A    between atoms: C_22  and  C_29 
ROOT
ATOM      1  O   UNL d   1      18.628 -24.666   0.528  0.00  0.00    -0.308 OA
ATOM      2  O   UNL d   1      19.414 -27.460  -0.469  0.00  0.00    -0.287 OA
ATOM      3  C   UNL d   1      20.327 -24.355   0.867  0.00  0.00     0.045 A 
ATOM      4  C   UNL d   1      19.621 -24.979   0.532  0.00  0.00     0.107 A 
ATOM      5  C   UNL d   1      19.874 -25.890   0.206  0.00  0.00     0.082 A 
ATOM      6  C   UNL d   1      21.285 -24.642   0.877  0.00  0.00     0.082 A 
ATOM      7  C   UNL d   1      20.832 -26.177   0.216  0.00  0.00     0.085 A 
ATOM      8  C   UNL d   1      21.537 -25.553   0.551  0.00  0.00     0.075 A 
ATOM      9  C   UNL d   1      17.887 -25.310   0.180  0.00  0.00     0.090 A 
ATOM     10  C   UNL d   1      19.150 -26.551  -0.146  0.00  0.00     0.190 A 
ATOM     11  C   UNL d   1      18.150 -26.260  -0.160  0.00  0.00     0.094 A 
ENDROOT
BRANCH   3  12
ATOM     12  C   UNL d   1      20.074 -23.443   1.193  0.00  0.00     0.014 A 
ATOM     13  C   UNL d   1      19.773 -23.316   2.138  0.00  0.00     0.029 A 
ATOM     14  C   UNL d   1      19.520 -22.405   2.463  0.00  0.00    -0.001 A 
ATOM     15  C   UNL d   1      19.570 -21.621   1.844  0.00  0.00     0.017 A 
ATOM     16  C   UNL d   1      19.872 -21.749   0.899  0.00  0.00     0.038 A 
ATOM     17  C   UNL d   1      20.124 -22.660   0.574  0.00  0.00     0.076 A 
BRANCH  14  18
ATOM     18  C   UNL d   1      19.218 -22.277   3.408  0.00  0.00     0.090 A 
ATOM     19  O   UNL d   1      19.786 -22.606   4.163  0.00  0.00    -0.309 OA
ATOM     20  C   UNL d   1      19.484 -22.479   5.108  0.00  0.00     0.095 A 
ATOM     21  C   UNL d   1      18.615 -22.022   5.298  0.00  0.00     0.081 A 
ATOM     22  C   UNL d   1      20.086 -22.827   5.884  0.00  0.00     0.075 A 
ATOM     23  C   UNL d   1      18.047 -21.694   4.543  0.00  0.00     0.190 A 
ATOM     24  C   UNL d   1      18.287 -21.883   6.277  0.00  0.00     0.085 A 
ATOM     25  O   UNL d   1      17.178 -21.238   4.733  0.00  0.00    -0.287 OA
ATOM     26  C   UNL d   1      18.349 -21.821   3.598  0.00  0.00     0.094 A 
ATOM     27  C   UNL d   1      18.873 -22.222   7.068  0.00  0.00     0.074 A 
ATOM     28  C   UNL d   1      19.779 -22.697   6.871  0.00  0.00     0.071 A 
BRANCH  24  29
ATOM     29  O   UNL d   1      17.416 -21.425   6.455  0.00  0.00    -0.360 OA
ATOM     30  H   UNL d   1      17.405 -20.891   6.771  0.00  0.00     0.217 HD
ENDBRANCH  24  29
BRANCH  28  31
ATOM     31  O   UNL d   1      20.349 -23.028   7.623  0.00  0.00    -0.361 OA
ATOM     32  H   UNL d   1      20.760 -23.481   7.524  0.00  0.00     0.217 HD
ENDBRANCH  28  31
ENDBRANCH  14  18
BRANCH  17  33
ATOM     33  O   UNL d   1      20.426 -22.787  -0.371  0.00  0.00    -0.360 OA
ATOM     34  H   UNL d   1      20.945 -23.104  -0.491  0.00  0.00     0.217 HD
ENDBRANCH  17  33
ENDBRANCH   3  12
BRANCH   6  35
ATOM     35  O   UNL d   1      21.990 -24.017   1.212  0.00  0.00    -0.360 OA
ATOM     36  H   UNL d   1      22.574 -24.215   1.276  0.00  0.00     0.217 HD
ENDBRANCH   6  35
BRANCH   9  37
ATOM     37  C   UNL d   1      16.930 -25.019   0.172  0.00  0.00    -0.002 A 
ATOM     38  C   UNL d   1      16.219 -25.633   0.516  0.00  0.00     0.017 A 
ATOM     39  C   UNL d   1      15.262 -25.343   0.508  0.00  0.00     0.037 A 
ATOM     40  C   UNL d   1      15.017 -24.439   0.156  0.00  0.00     0.065 A 
ATOM     41  C   UNL d   1      15.728 -23.826  -0.188  0.00  0.00     0.037 A 
ATOM     42  C   UNL d   1      16.685 -24.117  -0.179  0.00  0.00     0.017 A 
BRANCH  40  43
ATOM     43  O   UNL d   1      14.060 -24.148   0.148  0.00  0.00    -0.361 OA
ATOM     44  H   UNL d   1      13.866 -23.708   0.541  0.00  0.00     0.217 HD
ENDBRANCH  40  43
ENDBRANCH   9  37
BRANCH   7  45
ATOM     45  O   UNL d   1      21.084 -27.088  -0.110  0.00  0.00    -0.360 OA
ATOM     46  H   UNL d   1      21.466 -27.149  -0.595  0.00  0.00     0.217 HD
ENDBRANCH   7  45
TORSDOF 9
ENDMDL
MODEL 3
REMARK VINA RESULT:   -12.172      2.492      6.029
REMARK INTER + INTRA:          -7.791
REMARK INTER:                 -16.678
REMARK INTRA:                   8.887
REMARK UNBOUND:                 8.650
REMARK  9 active torsions:
REMARK  status: ('A' for Active; 'I' for Inactive)
REMARK    1  A    between atoms: O_3  and  C_17 
REMARK    2  A    between atoms: O_4  and  C_18 
REMARK    3  A    between atoms: O_5  and  C_19 
REMARK    4  A    between atoms: O_7  and  C_32 
REMARK    5  A    between atoms: O_9  and  C_36 
REMARK    6  A    between atoms: O_10  and  C_40 
REMARK    7  A    between atoms: C_11  and  C_13 
REMARK    8  A    between atoms: C_15  and  C_20 
REMARK    9  A    between atoms: C_22  and  C_29 
ROOT
ATOM      1  O   UNL d   1      18.747 -22.433   4.183  0.00  0.00    -0.308 OA
ATOM      2  O   UNL d   1      18.761 -20.942   6.866  0.00  0.00    -0.287 OA
ATOM      3  C   UNL d   1      19.473 -21.013   3.438  0.00  0.00     0.045 A 
ATOM      4  C   UNL d   1      19.117 -21.462   4.258  0.00  0.00     0.107 A 
ATOM      5  C   UNL d   1      19.120 -20.980   5.134  0.00  0.00     0.082 A 
ATOM      6  C   UNL d   1      19.832 -20.081   3.494  0.00  0.00     0.082 A 
ATOM      7  C   UNL d   1      19.479 -20.048   5.190  0.00  0.00     0.085 A 
ATOM      8  C   UNL d   1      19.834 -19.599   4.370  0.00  0.00     0.075 A 
ATOM      9  C   UNL d   1      18.375 -22.908   5.033  0.00  0.00     0.090 A 
ATOM     10  C   UNL d   1      18.753 -21.435   5.995  0.00  0.00     0.190 A 
ATOM     11  C   UNL d   1      18.378 -22.405   5.945  0.00  0.00     0.094 A 
ENDROOT
BRANCH   3  12
ATOM     12  C   UNL d   1      19.470 -21.496   2.562  0.00  0.00     0.014 A 
ATOM     13  C   UNL d   1      18.647 -21.498   1.995  0.00  0.00     0.029 A 
ATOM     14  C   UNL d   1      18.644 -21.980   1.119  0.00  0.00    -0.001 A 
ATOM     15  C   UNL d   1      19.465 -22.461   0.811  0.00  0.00     0.017 A 
ATOM     16  C   UNL d   1      20.288 -22.460   1.378  0.00  0.00     0.038 A 
ATOM     17  C   UNL d   1      20.291 -21.977   2.254  0.00  0.00     0.076 A 
BRANCH  14  18
ATOM     18  C   UNL d   1      17.820 -21.982   0.552  0.00  0.00     0.090 A 
ATOM     19  O   UNL d   1      17.166 -22.734   0.624  0.00  0.00    -0.309 OA
ATOM     20  C   UNL d   1      16.342 -22.736   0.056  0.00  0.00     0.095 A 
ATOM     21  C   UNL d   1      16.174 -21.986  -0.583  0.00  0.00     0.081 A 
ATOM     22  C   UNL d   1      15.669 -23.527   0.142  0.00  0.00     0.075 A 
ATOM     23  C   UNL d   1      16.829 -21.233  -0.654  0.00  0.00     0.190 A 
ATOM     24  C   UNL d   1      15.320 -21.973  -1.180  0.00  0.00     0.085 A 
ATOM     25  O   UNL d   1      16.660 -20.483  -1.293  0.00  0.00    -0.287 OA
ATOM     26  C   UNL d   1      17.652 -21.232  -0.087  0.00  0.00     0.094 A 
ATOM     27  C   UNL d   1      14.633 -22.754  -1.111  0.00  0.00     0.074 A 
ATOM     28  C   UNL d   1      14.809 -23.536  -0.446  0.00  0.00     0.071 A 
BRANCH  24  29
ATOM     29  O   UNL d   1      15.162 -21.218  -1.816  0.00  0.00    -0.360 OA
ATOM     30  H   UNL d   1      15.478 -21.190  -2.349  0.00  0.00     0.217 HD
ENDBRANCH  24  29
BRANCH  28  31
ATOM     31  O   UNL d   1      14.156 -24.290  -0.371  0.00  0.00    -0.361 OA
ATOM     32  H   UNL d   1      14.338 -24.836  -0.140  0.00  0.00     0.217 HD
ENDBRANCH  28  31
ENDBRANCH  14  18
BRANCH  17  33
ATOM     33  O   UNL d   1      21.114 -21.975   2.821  0.00  0.00    -0.360 OA
ATOM     34  H   UNL d   1      21.360 -22.511   3.013  0.00  0.00     0.217 HD
ENDBRANCH  17  33
ENDBRANCH   3  12
BRANCH   6  35
ATOM     35  O   UNL d   1      20.187 -19.632   2.675  0.00  0.00    -0.360 OA
ATOM     36  H   UNL d   1      20.799 -19.591   2.584  0.00  0.00     0.217 HD
ENDBRANCH   6  35
BRANCH   9  37
ATOM     37  C   UNL d   1      18.018 -23.840   4.972  0.00  0.00    -0.002 A 
ATOM     38  C   UNL d   1      17.917 -24.279   4.079  0.00  0.00     0.017 A 
ATOM     39  C   UNL d   1      17.559 -25.211   4.018  0.00  0.00     0.037 A 
ATOM     40  C   UNL d   1      17.303 -25.703   4.849  0.00  0.00     0.065 A 
ATOM     41  C   UNL d   1      17.403 -25.264   5.742  0.00  0.00     0.037 A 
ATOM     42  C   UNL d   1      17.761 -24.332   5.803  0.00  0.00     0.017 A 
BRANCH  40  43
ATOM     43  O   UNL d   1      16.945 -26.635   4.789  0.00  0.00    -0.361 OA
ATOM     44  H   UNL d   1      16.335 -26.738   4.841  0.00  0.00     0.217 HD
ENDBRANCH  40  43
ENDBRANCH   9  37
BRANCH   7  45
ATOM     45  O   UNL d   1      19.481 -19.565   6.065  0.00  0.00    -0.360 OA
ATOM     46  H   UNL d   1      19.765 -19.016   6.116  0.00  0.00     0.217 HD
ENDBRANCH   7  45
TORSDOF 9
ENDMDL
MODEL 4
REMARK VINA RESULT:   -12.144      1.755      5.777
REMARK INTER + INTRA:          -7.754
REMARK INTER:                 -16.896
REMARK INTRA:                   9.142
REMARK UNBOUND:                 8.650
REMARK  9 active torsions:
REMARK  status: ('A' for Active; 'I' for Inactive)
REMARK    1  A    between atoms: O_3  and  C_17 
REMARK    2  A    between atoms: O_4  and  C_18 
REMARK    3  A    between atoms: O_5  and  C_19 
REMARK    4  A    between atoms: O_7  and  C_32 
REMARK    5  A    between atoms: O_9  and  C_36 
REMARK    6  A    between atoms: O_10  and  C_40 
REMARK    7  A    between atoms: C_11  and  C_13 
REMARK    8  A    between atoms: C_15  and  C_20 
REMARK    9  A    between atoms: C_22  and  C_29 
ROOT
ATOM      1  O   UNL d   1      18.546 -22.371   3.773  0.00  0.00    -0.308 OA
ATOM      2  O   UNL d   1      19.314 -20.604   6.161  0.00  0.00    -0.287 OA
ATOM      3  C   UNL d   1      19.057 -21.072   2.700  0.00  0.00     0.045 A 
ATOM      4  C   UNL d   1      18.935 -21.415   3.632  0.00  0.00     0.107 A 
ATOM      5  C   UNL d   1      19.184 -20.842   4.412  0.00  0.00     0.082 A 
ATOM      6  C   UNL d   1      19.430 -20.157   2.550  0.00  0.00     0.082 A 
ATOM      7  C   UNL d   1      19.556 -19.926   4.262  0.00  0.00     0.085 A 
ATOM      8  C   UNL d   1      19.679 -19.584   3.330  0.00  0.00     0.075 A 
ATOM      9  C   UNL d   1      18.415 -22.735   4.740  0.00  0.00     0.090 A 
ATOM     10  C   UNL d   1      19.061 -21.186   5.388  0.00  0.00     0.190 A 
ATOM     11  C   UNL d   1      18.675 -22.138   5.553  0.00  0.00     0.094 A 
ENDROOT
BRANCH   3  12
ATOM     12  C   UNL d   1      18.808 -21.646   1.920  0.00  0.00     0.014 A 
ATOM     13  C   UNL d   1      19.446 -22.338   1.584  0.00  0.00     0.029 A 
ATOM     14  C   UNL d   1      19.197 -22.911   0.803  0.00  0.00    -0.001 A 
ATOM     15  C   UNL d   1      18.309 -22.792   0.358  0.00  0.00     0.017 A 
ATOM     16  C   UNL d   1      17.671 -22.099   0.694  0.00  0.00     0.038 A 
ATOM     17  C   UNL d   1      17.920 -21.526   1.475  0.00  0.00     0.076 A 
BRANCH  14  18
ATOM     18  C   UNL d   1      19.836 -23.604   0.467  0.00  0.00     0.090 A 
ATOM     19  O   UNL d   1      19.526 -24.544   0.328  0.00  0.00    -0.309 OA
ATOM     20  C   UNL d   1      20.164 -25.237  -0.008  0.00  0.00     0.095 A 
ATOM     21  C   UNL d   1      21.112 -24.989  -0.205  0.00  0.00     0.081 A 
ATOM     22  C   UNL d   1      19.826 -26.213  -0.148  0.00  0.00     0.075 A 
ATOM     23  C   UNL d   1      21.422 -24.048  -0.066  0.00  0.00     0.190 A 
ATOM     24  C   UNL d   1      21.789 -25.699  -0.555  0.00  0.00     0.085 A 
ATOM     25  O   UNL d   1      22.371 -23.800  -0.263  0.00  0.00    -0.287 OA
ATOM     26  C   UNL d   1      20.784 -23.356   0.270  0.00  0.00     0.094 A 
ATOM     27  C   UNL d   1      21.473 -26.681  -0.703  0.00  0.00     0.074 A 
ATOM     28  C   UNL d   1      20.485 -26.940  -0.497  0.00  0.00     0.071 A 
BRANCH  24  29
ATOM     29  O   UNL d   1      22.735 -25.440  -0.749  0.00  0.00    -0.360 OA
ATOM     30  H   UNL d   1      23.106 -25.253  -0.288  0.00  0.00     0.217 HD
ENDBRANCH  24  29
BRANCH  28  31
ATOM     31  O   UNL d   1      20.171 -27.879  -0.635  0.00  0.00    -0.361 OA
ATOM     32  H   UNL d   1      19.734 -28.001  -1.058  0.00  0.00     0.217 HD
ENDBRANCH  28  31
ENDBRANCH  14  18
BRANCH  17  33
ATOM     33  O   UNL d   1      17.282 -20.834   1.811  0.00  0.00    -0.360 OA
ATOM     34  H   UNL d   1      17.434 -20.483   2.299  0.00  0.00     0.217 HD
ENDBRANCH  17  33
ENDBRANCH   3  12
BRANCH   6  35
ATOM     35  O   UNL d   1      19.552 -19.814   1.618  0.00  0.00    -0.360 OA
ATOM     36  H   UNL d   1      19.481 -19.210   1.498  0.00  0.00     0.217 HD
ENDBRANCH   6  35
BRANCH   9  37
ATOM     37  C   UNL d   1      18.042 -23.652   4.886  0.00  0.00    -0.002 A 
ATOM     38  C   UNL d   1      17.924 -24.272   4.111  0.00  0.00     0.017 A 
ATOM     39  C   UNL d   1      17.552 -25.189   4.256  0.00  0.00     0.037 A 
ATOM     40  C   UNL d   1      17.298 -25.484   5.177  0.00  0.00     0.065 A 
ATOM     41  C   UNL d   1      17.416 -24.864   5.953  0.00  0.00     0.037 A 
ATOM     42  C   UNL d   1      17.788 -23.947   5.806  0.00  0.00     0.017 A 
BRANCH  40  43
ATOM     43  O   UNL d   1      16.925 -26.401   5.323  0.00  0.00    -0.361 OA
ATOM     44  H   UNL d   1      17.016 -26.690   5.865  0.00  0.00     0.217 HD
ENDBRANCH  40  43
ENDBRANCH   9  37
BRANCH   7  45
ATOM     45  O   UNL d   1      19.805 -19.353   5.042  0.00  0.00    -0.360 OA
ATOM     46  H   UNL d   1      20.339 -19.452   5.342  0.00  0.00     0.217 HD
ENDBRANCH   7  45
TORSDOF 9
ENDMDL
MODEL 5
REMARK VINA RESULT:   -12.083      2.125      5.958
REMARK INTER + INTRA:          -7.672
REMARK INTER:                 -16.529
REMARK INTRA:                   8.857
REMARK UNBOUND:                 8.650
REMARK  9 active torsions:
REMARK  status: ('A' for Active; 'I' for Inactive)
REMARK    1  A    between atoms: O_3  and  C_17 
REMARK    2  A    between atoms: O_4  and  C_18 
REMARK    3  A    between atoms: O_5  and  C_19 
REMARK    4  A    between atoms: O_7  and  C_32 
REMARK    5  A    between atoms: O_9  and  C_36 
REMARK    6  A    between atoms: O_10  and  C_40 
REMARK    7  A    between atoms: C_11  and  C_13 
REMARK    8  A    between atoms: C_15  and  C_20 
REMARK    9  A    between atoms: C_22  and  C_29 
ROOT
ATOM      1  O   UNL d   1      20.002 -22.373   2.382  0.00  0.00    -0.308 OA
ATOM      2  O   UNL d   1      20.867 -22.844   5.289  0.00  0.00    -0.287 OA
ATOM      3  C   UNL d   1      18.839 -21.186   2.965  0.00  0.00     0.045 A 
ATOM      4  C   UNL d   1      19.558 -21.851   3.168  0.00  0.00     0.107 A 
ATOM      5  C   UNL d   1      19.843 -22.007   4.113  0.00  0.00     0.082 A 
ATOM      6  C   UNL d   1      18.404 -20.678   3.708  0.00  0.00     0.082 A 
ATOM      7  C   UNL d   1      19.408 -21.498   4.857  0.00  0.00     0.085 A 
ATOM      8  C   UNL d   1      18.689 -20.834   4.654  0.00  0.00     0.075 A 
ATOM      9  C   UNL d   1      20.751 -23.067   2.586  0.00  0.00     0.090 A 
ATOM     10  C   UNL d   1      20.590 -22.696   4.340  0.00  0.00     0.190 A 
ATOM     11  C   UNL d   1      21.048 -23.229   3.571  0.00  0.00     0.094 A 
ENDROOT
BRANCH   3  12
ATOM     12  C   UNL d   1      18.554 -21.030   2.019  0.00  0.00     0.014 A 
ATOM     13  C   UNL d   1      17.875 -21.629   1.596  0.00  0.00     0.029 A 
ATOM     14  C   UNL d   1      17.590 -21.473   0.650  0.00  0.00    -0.001 A 
ATOM     15  C   UNL d   1      17.986 -20.718   0.127  0.00  0.00     0.017 A 
ATOM     16  C   UNL d   1      18.665 -20.119   0.550  0.00  0.00     0.038 A 
ATOM     17  C   UNL d   1      18.950 -20.275   1.496  0.00  0.00     0.076 A 
BRANCH  14  18
ATOM     18  C   UNL d   1      16.910 -22.072   0.227  0.00  0.00     0.090 A 
ATOM     19  O   UNL d   1      16.896 -23.047   0.449  0.00  0.00    -0.309 OA
ATOM     20  C   UNL d   1      16.216 -23.646   0.026  0.00  0.00     0.095 A 
ATOM     21  C   UNL d   1      15.551 -23.270  -0.619  0.00  0.00     0.081 A 
ATOM     22  C   UNL d   1      16.213 -24.660   0.267  0.00  0.00     0.075 A 
ATOM     23  C   UNL d   1      15.565 -22.295  -0.841  0.00  0.00     0.190 A 
ATOM     24  C   UNL d   1      14.837 -23.881  -1.068  0.00  0.00     0.085 A 
ATOM     25  O   UNL d   1      14.900 -21.919  -1.486  0.00  0.00    -0.287 OA
ATOM     26  C   UNL d   1      16.245 -21.696  -0.418  0.00  0.00     0.094 A 
ATOM     27  C   UNL d   1      14.815 -24.898  -0.841  0.00  0.00     0.074 A 
ATOM     28  C   UNL d   1      15.508 -25.290  -0.169  0.00  0.00     0.071 A 
BRANCH  24  29
ATOM     29  O   UNL d   1      14.176 -23.495  -1.711  0.00  0.00    -0.360 OA
ATOM     30  H   UNL d   1      13.660 -23.223  -1.500  0.00  0.00     0.217 HD
ENDBRANCH  24  29
BRANCH  28  31
ATOM     31  O   UNL d   1      15.497 -26.265   0.055  0.00  0.00    -0.361 OA
ATOM     32  H   UNL d   1      15.958 -26.632  -0.136  0.00  0.00     0.217 HD
ENDBRANCH  28  31
ENDBRANCH  14  18
BRANCH  17  33
ATOM     33  O   UNL d   1      19.630 -19.676   1.919  0.00  0.00    -0.360 OA
ATOM     34  H   UNL d   1      20.047 -19.910   2.313  0.00  0.00     0.217 HD
ENDBRANCH  17  33
ENDBRANCH   3  12
BRANCH   6  35
ATOM     35  O   UNL d   1      17.685 -20.013   3.506  0.00  0.00    -0.360 OA
ATOM     36  H   UNL d   1      17.477 -19.949   2.925  0.00  0.00     0.217 HD
ENDBRANCH   6  35
BRANCH   9  37
ATOM     37  C   UNL d   1      21.184 -23.573   1.839  0.00  0.00    -0.002 A 
ATOM     38  C   UNL d   1      21.568 -23.080   1.059  0.00  0.00     0.017 A 
ATOM     39  C   UNL d   1      22.000 -23.586   0.312  0.00  0.00     0.037 A 
ATOM     40  C   UNL d   1      22.048 -24.584   0.347  0.00  0.00     0.065 A 
ATOM     41  C   UNL d   1      21.663 -25.077   1.127  0.00  0.00     0.037 A 
ATOM     42  C   UNL d   1      21.231 -24.570   1.874  0.00  0.00     0.017 A 
BRANCH  40  43
ATOM     43  O   UNL d   1      22.480 -25.091  -0.400  0.00  0.00    -0.361 OA
ATOM     44  H   UNL d   1      22.426 -24.888  -0.984  0.00  0.00     0.217 HD
ENDBRANCH  40  43
ENDBRANCH   9  37
BRANCH   7  45
ATOM     45  O   UNL d   1      19.692 -21.654   5.803  0.00  0.00    -0.360 OA
ATOM     46  H   UNL d   1      19.822 -21.173   6.171  0.00  0.00     0.217 HD
ENDBRANCH   7  45
TORSDOF 9
ENDMDL
