MODEL 1
REMARK VINA RESULT:    -7.213      0.000      0.000
REMARK INTER + INTRA:          -7.016
REMARK INTER:                  -8.062
REMARK INTRA:                   1.047
REMARK UNBOUND:                 1.041
REMARK  3 active torsions:
REMARK  status: ('A' for Active; 'I' for Inactive)
REMARK    1  A    between atoms: O_2  and  C_10 
REMARK    2  A    between atoms: O_4  and  C_13 
REMARK    3  A    between atoms: C_7  and  C_9 
ROOT
ATOM      1  O   UNL d   1      49.385  -2.780   7.277  0.00  0.00    -0.309 OA
ATOM      2  O   UNL d   1      47.899  -1.280   9.408  0.00  0.00    -0.287 OA
ATOM      3  C   UNL d   1      48.777  -2.682   8.896  0.00  0.00     0.081 A 
ATOM      4  C   UNL d   1      49.272  -3.182   8.186  0.00  0.00     0.095 A 
ATOM      5  C   UNL d   1      49.002  -1.877   7.079  0.00  0.00     0.090 A 
ATOM      6  C   UNL d   1      48.394  -1.780   8.698  0.00  0.00     0.190 A 
ATOM      7  C   UNL d   1      48.651  -3.089   9.847  0.00  0.00     0.085 A 
ATOM      8  C   UNL d   1      48.507  -1.377   7.790  0.00  0.00     0.094 A 
ATOM      9  C   UNL d   1      49.676  -4.123   8.377  0.00  0.00     0.075 A 
ATOM     10  C   UNL d   1      49.563  -4.549   9.321  0.00  0.00     0.071 A 
ATOM     11  C   UNL d   1      49.047  -4.028  10.060  0.00  0.00     0.074 A 
ENDROOT
BRANCH   5  12
ATOM     12  C   UNL d   1      49.115  -1.475   6.171  0.00  0.00    -0.002 A 
ATOM     13  C   UNL d   1      48.632  -1.865   5.387  0.00  0.00     0.014 A 
ATOM     14  C   UNL d   1      48.745  -1.463   4.479  0.00  0.00     0.001 A 
ATOM     15  C   UNL d   1      49.341  -0.670   4.354  0.00  0.00     0.000 A 
ATOM     16  C   UNL d   1      49.824  -0.279   5.137  0.00  0.00     0.001 A 
ATOM     17  C   UNL d   1      49.711  -0.682   6.046  0.00  0.00     0.014 A 
ENDBRANCH   5  12
BRANCH   7  18
ATOM     18  O   UNL d   1      48.154  -2.580  10.549  0.00  0.00    -0.360 OA
ATOM     19  H   UNL d   1      47.770  -2.122  10.386  0.00  0.00     0.217 HD
ENDBRANCH   7  18
BRANCH  10  20
ATOM     20  O   UNL d   1      49.947  -5.452   9.515  0.00  0.00    -0.361 OA
ATOM     21  H   UNL d   1      49.767  -5.943   9.181  0.00  0.00     0.217 HD
ENDBRANCH  10  20
TORSDOF 3
ENDMDL
MODEL 2
REMARK VINA RESULT:    -6.735      1.594      4.611
REMARK INTER + INTRA:          -6.482
REMARK INTER:                  -7.769
REMARK INTRA:                   1.287
REMARK UNBOUND:                 1.041
REMARK  3 active torsions:
REMARK  status: ('A' for Active; 'I' for Inactive)
REMARK    1  A    between atoms: O_2  and  C_10 
REMARK    2  A    between atoms: O_4  and  C_13 
REMARK    3  A    between atoms: C_7  and  C_9 
ROOT
ATOM      1  O   UNL d   1      49.376  -2.370   7.788  0.00  0.00    -0.309 OA
ATOM      2  O   UNL d   1      48.367  -2.755   4.990  0.00  0.00    -0.287 OA
ATOM      3  C   UNL d   1      49.036  -1.730   6.215  0.00  0.00     0.081 A 
ATOM      4  C   UNL d   1      49.373  -1.602   7.148  0.00  0.00     0.095 A 
ATOM      5  C   UNL d   1      49.042  -3.266   7.496  0.00  0.00     0.090 A 
ATOM      6  C   UNL d   1      48.703  -2.626   5.923  0.00  0.00     0.190 A 
ATOM      7  C   UNL d   1      49.027  -0.940   5.537  0.00  0.00     0.085 A 
ATOM      8  C   UNL d   1      48.706  -3.394   6.563  0.00  0.00     0.094 A 
ATOM      9  C   UNL d   1      49.723  -0.674   7.468  0.00  0.00     0.075 A 
ATOM     10  C   UNL d   1      49.723   0.130   6.806  0.00  0.00     0.071 A 
ATOM     11  C   UNL d   1      49.373  -0.003   5.835  0.00  0.00     0.074 A 
ENDROOT
BRANCH   5  12
ATOM     12  C   UNL d   1      49.045  -4.034   8.136  0.00  0.00    -0.002 A 
ATOM     13  C   UNL d   1      48.325  -4.726   8.091  0.00  0.00     0.014 A 
ATOM     14  C   UNL d   1      48.328  -5.494   8.731  0.00  0.00     0.001 A 
ATOM     15  C   UNL d   1      49.051  -5.570   9.417  0.00  0.00     0.000 A 
ATOM     16  C   UNL d   1      49.772  -4.879   9.463  0.00  0.00     0.001 A 
ATOM     17  C   UNL d   1      49.769  -4.110   8.822  0.00  0.00     0.014 A 
ENDBRANCH   5  12
BRANCH   7  18
ATOM     18  O   UNL d   1      48.689  -1.079   4.607  0.00  0.00    -0.360 OA
ATOM     19  H   UNL d   1      48.969  -1.486   4.233  0.00  0.00     0.217 HD
ENDBRANCH   7  18
BRANCH  10  20
ATOM     20  O   UNL d   1      50.058   1.025   7.103  0.00  0.00    -0.361 OA
ATOM     21  H   UNL d   1      49.962   1.524   6.748  0.00  0.00     0.217 HD
ENDBRANCH  10  20
TORSDOF 3
ENDMDL
MODEL 3
REMARK VINA RESULT:    -6.568      1.467      2.407
REMARK INTER + INTRA:          -6.295
REMARK INTER:                  -7.613
REMARK INTRA:                   1.318
REMARK UNBOUND:                 1.041
REMARK  3 active torsions:
REMARK  status: ('A' for Active; 'I' for Inactive)
REMARK    1  A    between atoms: O_2  and  C_10 
REMARK    2  A    between atoms: O_4  and  C_13 
REMARK    3  A    between atoms: C_7  and  C_9 
ROOT
ATOM      1  O   UNL d   1      48.847  -2.050   5.458  0.00  0.00    -0.309 OA
ATOM      2  O   UNL d   1      49.528   0.229   7.286  0.00  0.00    -0.287 OA
ATOM      3  C   UNL d   1      49.129  -1.441   7.055  0.00  0.00     0.081 A 
ATOM      4  C   UNL d   1      48.902  -2.201   6.445  0.00  0.00     0.095 A 
ATOM      5  C   UNL d   1      49.018  -1.140   5.080  0.00  0.00     0.090 A 
ATOM      6  C   UNL d   1      49.301  -0.531   6.677  0.00  0.00     0.190 A 
ATOM      7  C   UNL d   1      49.191  -1.583   8.084  0.00  0.00     0.085 A 
ATOM      8  C   UNL d   1      49.245  -0.381   5.690  0.00  0.00     0.094 A 
ATOM      9  C   UNL d   1      48.721  -3.154   6.823  0.00  0.00     0.075 A 
ATOM     10  C   UNL d   1      48.777  -3.318   7.851  0.00  0.00     0.071 A 
ATOM     11  C   UNL d   1      49.013  -2.528   8.485  0.00  0.00     0.074 A 
ENDROOT
BRANCH   5  12
ATOM     12  C   UNL d   1      48.963  -0.990   4.093  0.00  0.00    -0.002 A 
ATOM     13  C   UNL d   1      48.687  -0.097   3.738  0.00  0.00     0.014 A 
ATOM     14  C   UNL d   1      48.631   0.053   2.751  0.00  0.00     0.001 A 
ATOM     15  C   UNL d   1      48.851  -0.690   2.119  0.00  0.00     0.000 A 
ATOM     16  C   UNL d   1      49.127  -1.583   2.474  0.00  0.00     0.001 A 
ATOM     17  C   UNL d   1      49.183  -1.733   3.461  0.00  0.00     0.014 A 
ENDBRANCH   5  12
BRANCH   7  18
ATOM     18  O   UNL d   1      49.418  -0.816   8.684  0.00  0.00    -0.360 OA
ATOM     19  H   UNL d   1      49.413  -0.237   8.463  0.00  0.00     0.217 HD
ENDBRANCH   7  18
BRANCH  10  20
ATOM     20  O   UNL d   1      48.605  -4.230   8.224  0.00  0.00    -0.361 OA
ATOM     21  H   UNL d   1      49.080  -4.605   8.356  0.00  0.00     0.217 HD
ENDBRANCH  10  20
TORSDOF 3
ENDMDL
MODEL 4
REMARK VINA RESULT:    -6.143      1.520      2.889
REMARK INTER + INTRA:          -5.820
REMARK INTER:                  -6.879
REMARK INTRA:                   1.059
REMARK UNBOUND:                 1.041
REMARK  3 active torsions:
REMARK  status: ('A' for Active; 'I' for Inactive)
REMARK    1  A    between atoms: O_2  and  C_10 
REMARK    2  A    between atoms: O_4  and  C_13 
REMARK    3  A    between atoms: C_7  and  C_9 
ROOT
ATOM      1  O   UNL d   1      48.294  -0.628   6.307  0.00  0.00    -0.309 OA
ATOM      2  O   UNL d   1      49.214  -3.328   7.236  0.00  0.00    -0.287 OA
ATOM      3  C   UNL d   1      48.531  -1.775   7.583  0.00  0.00     0.081 A 
ATOM      4  C   UNL d   1      48.224  -0.875   7.273  0.00  0.00     0.095 A 
ATOM      5  C   UNL d   1      48.671  -1.282   5.650  0.00  0.00     0.090 A 
ATOM      6  C   UNL d   1      48.907  -2.428   6.926  0.00  0.00     0.190 A 
ATOM      7  C   UNL d   1      48.464  -2.046   8.586  0.00  0.00     0.085 A 
ATOM      8  C   UNL d   1      48.977  -2.182   5.960  0.00  0.00     0.094 A 
ATOM      9  C   UNL d   1      47.830  -0.183   7.945  0.00  0.00     0.075 A 
ATOM     10  C   UNL d   1      47.754  -0.433   8.954  0.00  0.00     0.071 A 
ATOM     11  C   UNL d   1      48.074  -1.370   9.276  0.00  0.00     0.074 A 
ENDROOT
BRANCH   5  12
ATOM     12  C   UNL d   1      48.740  -1.035   4.683  0.00  0.00    -0.002 A 
ATOM     13  C   UNL d   1      49.382  -0.325   4.394  0.00  0.00     0.014 A 
ATOM     14  C   UNL d   1      49.452  -0.078   3.427  0.00  0.00     0.001 A 
ATOM     15  C   UNL d   1      48.880  -0.542   2.750  0.00  0.00     0.000 A 
ATOM     16  C   UNL d   1      48.238  -1.252   3.040  0.00  0.00     0.001 A 
ATOM     17  C   UNL d   1      48.169  -1.499   4.007  0.00  0.00     0.014 A 
ENDBRANCH   5  12
BRANCH   7  18
ATOM     18  O   UNL d   1      48.774  -2.948   8.885  0.00  0.00    -0.360 OA
ATOM     19  H   UNL d   1      49.351  -3.136   8.757  0.00  0.00     0.217 HD
ENDBRANCH   7  18
BRANCH  10  20
ATOM     20  O   UNL d   1      47.377   0.223   9.608  0.00  0.00    -0.361 OA
ATOM     21  H   UNL d   1      46.871   0.550   9.461  0.00  0.00     0.217 HD
ENDBRANCH  10  20
TORSDOF 3
ENDMDL
MODEL 5
REMARK VINA RESULT:    -5.974      3.730      5.067
REMARK INTER + INTRA:          -5.631
REMARK INTER:                  -6.740
REMARK INTRA:                   1.109
REMARK UNBOUND:                 1.041
REMARK  3 active torsions:
REMARK  status: ('A' for Active; 'I' for Inactive)
REMARK    1  A    between atoms: O_2  and  C_10 
REMARK    2  A    between atoms: O_4  and  C_13 
REMARK    3  A    between atoms: C_7  and  C_9 
ROOT
ATOM      1  O   UNL d   1      47.478   1.229   6.935  0.00  0.00    -0.309 OA
ATOM      2  O   UNL d   1      47.860   0.234   4.131  0.00  0.00    -0.287 OA
ATOM      3  C   UNL d   1      48.304   0.209   5.805  0.00  0.00     0.081 A 
ATOM      4  C   UNL d   1      48.176   0.540   6.740  0.00  0.00     0.095 A 
ATOM      5  C   UNL d   1      46.907   1.586   6.196  0.00  0.00     0.090 A 
ATOM      6  C   UNL d   1      47.733   0.565   5.066  0.00  0.00     0.190 A 
ATOM      7  C   UNL d   1      49.027  -0.508   5.587  0.00  0.00     0.085 A 
ATOM      8  C   UNL d   1      47.034   1.254   5.261  0.00  0.00     0.094 A 
ATOM      9  C   UNL d   1      48.763   0.178   7.521  0.00  0.00     0.075 A 
ATOM     10  C   UNL d   1      49.493  -0.539   7.325  0.00  0.00     0.071 A 
ATOM     11  C   UNL d   1      49.625  -0.885   6.352  0.00  0.00     0.074 A 
ENDROOT
BRANCH   5  12
ATOM     12  C   UNL d   1      46.208   2.274   6.391  0.00  0.00    -0.002 A 
ATOM     13  C   UNL d   1      45.457   2.061   7.016  0.00  0.00     0.014 A 
ATOM     14  C   UNL d   1      44.759   2.750   7.211  0.00  0.00     0.001 A 
ATOM     15  C   UNL d   1      44.812   3.651   6.782  0.00  0.00     0.000 A 
ATOM     16  C   UNL d   1      45.563   3.864   6.157  0.00  0.00     0.001 A 
ATOM     17  C   UNL d   1      46.261   3.176   5.961  0.00  0.00     0.014 A 
ENDBRANCH   5  12
BRANCH   7  18
ATOM     18  O   UNL d   1      49.146  -0.833   4.648  0.00  0.00    -0.360 OA
ATOM     19  H   UNL d   1      49.195  -1.440   4.534  0.00  0.00     0.217 HD
ENDBRANCH   7  18
BRANCH  10  20
ATOM     20  O   UNL d   1      50.061  -0.894   8.067  0.00  0.00    -0.361 OA
ATOM     21  H   UNL d   1      49.893  -1.409   8.367  0.00  0.00     0.217 HD
ENDBRANCH  10  20
TORSDOF 3
ENDMDL
