MODEL 1
REMARK VINA RESULT:    -7.811      0.000      0.000
REMARK INTER + INTRA:           1.869
REMARK INTER:                 -10.843
REMARK INTRA:                  12.713
REMARK UNBOUND:                12.420
REMARK  9 active torsions:
REMARK  status: ('A' for Active; 'I' for Inactive)
REMARK    1  A    between atoms: C_15  and  O_2 
REMARK    2  A    between atoms: O_2  and  C_17 
REMARK    3  A    between atoms: C_11  and  O_3 
REMARK    4  A    between atoms: C_12  and  O_4 
REMARK    5  A    between atoms: C_13  and  O_5 
REMARK    6  A    between atoms: O_8  and  C_23 
REMARK    7  A    between atoms: O_9  and  C_28 
REMARK    8  A    between atoms: O_10  and  C_31 
REMARK    9  A    between atoms: C_18  and  C_22 
ROOT
ATOM      1  O   UNL d   1       6.104  30.473  40.287  0.00  0.00    -0.306 OA
ATOM      2  O   UNL d   1       3.208  30.114  40.983  0.00  0.00    -0.284 OA
ATOM      3  C   UNL d   1       4.430  30.647  39.877  0.00  0.00     0.157 A 
ATOM      4  C   UNL d   1       5.395  30.767  39.645  0.00  0.00     0.123 A 
ATOM      5  C   UNL d   1       4.173  30.234  40.751  0.00  0.00     0.223 A 
ATOM      6  C   UNL d   1       4.882  29.940  41.392  0.00  0.00     0.084 A 
ATOM      7  C   UNL d   1       5.847  30.060  41.160  0.00  0.00     0.096 A 
ATOM      8  C   UNL d   1       4.599  29.511  42.298  0.00  0.00     0.085 A 
ATOM      9  C   UNL d   1       6.597  29.758  41.818  0.00  0.00     0.075 A 
ATOM     10  C   UNL d   1       5.332  29.202  42.972  0.00  0.00     0.074 A 
ATOM     11  C   UNL d   1       6.338  29.327  42.730  0.00  0.00     0.071 A 
ENDROOT
BRANCH   3  12
ATOM     12  O   UNL d   1       3.722  30.941  39.236  0.00  0.00    -0.311 OA
BRANCH  12  13
ATOM     13  C   UNL d   1       3.161  31.743  39.443  0.00  0.00     0.298 A 
ATOM     14  O   UNL d   1       3.572  32.538  39.890  0.00  0.00    -0.351 OA
ATOM     15  C   UNL d   1       3.011  33.340  40.096  0.00  0.00     0.152 A 
ATOM     16  C   UNL d   1       2.041  33.347  39.856  0.00  0.00     0.178 A 
ATOM     17  C   UNL d   1       3.422  34.135  40.543  0.00  0.00     0.042 C 
ATOM     18  C   UNL d   1       1.630  32.552  39.409  0.00  0.00     0.183 A 
ATOM     19  C   UNL d   1       2.191  31.750  39.203  0.00  0.00     0.205 A 
BRANCH  16  20
ATOM     20  O   UNL d   1       1.480  34.149  40.063  0.00  0.00    -0.390 OA
ATOM     21  H   UNL d   1       1.372  34.308  40.653  0.00  0.00     0.210 HD
ENDBRANCH  16  20
BRANCH  18  22
ATOM     22  O   UNL d   1       0.660  32.560  39.169  0.00  0.00    -0.390 OA
ATOM     23  H   UNL d   1       0.234  32.685  39.603  0.00  0.00     0.210 HD
ENDBRANCH  18  22
BRANCH  19  24
ATOM     24  O   UNL d   1       1.780  30.956  38.756  0.00  0.00    -0.388 OA
ATOM     25  H   UNL d   1       1.830  30.885  38.142  0.00  0.00     0.210 HD
ENDBRANCH  19  24
ENDBRANCH  12  13
ENDBRANCH   3  12
BRANCH   4  26
ATOM     26  C   UNL d   1       5.652  31.181  38.772  0.00  0.00     0.001 A 
ATOM     27  C   UNL d   1       5.460  30.701  37.916  0.00  0.00     0.017 A 
ATOM     28  C   UNL d   1       5.717  31.114  37.042  0.00  0.00     0.037 A 
ATOM     29  C   UNL d   1       6.165  32.008  37.025  0.00  0.00     0.065 A 
ATOM     30  C   UNL d   1       6.357  32.488  37.881  0.00  0.00     0.037 A 
ATOM     31  C   UNL d   1       6.101  32.074  38.754  0.00  0.00     0.017 A 
BRANCH  29  32
ATOM     32  O   UNL d   1       6.422  32.422  36.151  0.00  0.00    -0.361 OA
ATOM     33  H   UNL d   1       6.761  32.100  35.744  0.00  0.00     0.217 HD
ENDBRANCH  29  32
ENDBRANCH   4  26
BRANCH   8  34
ATOM     34  O   UNL d   1       3.631  29.396  42.520  0.00  0.00    -0.360 OA
ATOM     35  H   UNL d   1       3.449  29.378  43.113  0.00  0.00     0.217 HD
ENDBRANCH   8  34
BRANCH  11  36
ATOM     36  O   UNL d   1       7.049  29.034  43.369  0.00  0.00    -0.361 OA
ATOM     37  H   UNL d   1       7.118  29.327  43.912  0.00  0.00     0.217 HD
ENDBRANCH  11  36
TORSDOF 9
ENDMDL
MODEL 2
REMARK VINA RESULT:    -7.647      1.903      5.571
REMARK INTER + INTRA:           2.090
REMARK INTER:                 -10.390
REMARK INTRA:                  12.481
REMARK UNBOUND:                12.420
REMARK  9 active torsions:
REMARK  status: ('A' for Active; 'I' for Inactive)
REMARK    1  A    between atoms: C_15  and  O_2 
REMARK    2  A    between atoms: O_2  and  C_17 
REMARK    3  A    between atoms: C_11  and  O_3 
REMARK    4  A    between atoms: C_12  and  O_4 
REMARK    5  A    between atoms: C_13  and  O_5 
REMARK    6  A    between atoms: O_8  and  C_23 
REMARK    7  A    between atoms: O_9  and  C_28 
REMARK    8  A    between atoms: O_10  and  C_31 
REMARK    9  A    between atoms: C_18  and  C_22 
ROOT
ATOM      1  O   UNL d   1       2.837  32.836  37.901  0.00  0.00    -0.306 OA
ATOM      2  O   UNL d   1       5.420  31.362  37.507  0.00  0.00    -0.284 OA
ATOM      3  C   UNL d   1       3.938  31.585  38.374  0.00  0.00     0.157 A 
ATOM      4  C   UNL d   1       3.077  32.076  38.506  0.00  0.00     0.123 A 
ATOM      5  C   UNL d   1       4.559  31.853  37.639  0.00  0.00     0.223 A 
ATOM      6  C   UNL d   1       4.320  32.613  37.035  0.00  0.00     0.084 A 
ATOM      7  C   UNL d   1       3.459  33.105  37.166  0.00  0.00     0.096 A 
ATOM      8  C   UNL d   1       4.978  32.882  36.273  0.00  0.00     0.085 A 
ATOM      9  C   UNL d   1       3.196  33.899  36.544  0.00  0.00     0.075 A 
ATOM     10  C   UNL d   1       4.736  33.673  35.639  0.00  0.00     0.074 A 
ATOM     11  C   UNL d   1       3.839  34.185  35.776  0.00  0.00     0.071 A 
ENDROOT
BRANCH   3  12
ATOM     12  O   UNL d   1       4.177  30.825  38.979  0.00  0.00    -0.311 OA
BRANCH  12  13
ATOM     13  C   UNL d   1       4.934  30.919  39.625  0.00  0.00     0.298 A 
ATOM     14  O   UNL d   1       5.289  31.826  39.850  0.00  0.00    -0.351 OA
ATOM     15  C   UNL d   1       6.047  31.920  40.496  0.00  0.00     0.152 A 
ATOM     16  C   UNL d   1       6.449  31.107  40.917  0.00  0.00     0.178 A 
ATOM     17  C   UNL d   1       6.402  32.827  40.721  0.00  0.00     0.042 C 
ATOM     18  C   UNL d   1       6.094  30.200  40.692  0.00  0.00     0.183 A 
ATOM     19  C   UNL d   1       5.336  30.106  40.046  0.00  0.00     0.205 A 
BRANCH  16  20
ATOM     20  O   UNL d   1       7.206  31.201  41.563  0.00  0.00    -0.390 OA
ATOM     21  H   UNL d   1       7.126  31.515  42.091  0.00  0.00     0.210 HD
ENDBRANCH  16  20
BRANCH  18  22
ATOM     22  O   UNL d   1       6.496  29.387  41.113  0.00  0.00    -0.390 OA
ATOM     23  H   UNL d   1       7.004  29.130  40.868  0.00  0.00     0.210 HD
ENDBRANCH  18  22
BRANCH  19  24
ATOM     24  O   UNL d   1       4.981  29.198  39.821  0.00  0.00    -0.388 OA
ATOM     25  H   UNL d   1       4.580  28.919  40.202  0.00  0.00     0.210 HD
ENDBRANCH  19  24
ENDBRANCH  12  13
ENDBRANCH   3  12
BRANCH   4  26
ATOM     26  C   UNL d   1       2.455  31.807  39.241  0.00  0.00     0.001 A 
ATOM     27  C   UNL d   1       2.367  32.380  40.056  0.00  0.00     0.017 A 
ATOM     28  C   UNL d   1       1.745  32.111  40.791  0.00  0.00     0.037 A 
ATOM     29  C   UNL d   1       1.211  31.269  40.712  0.00  0.00     0.065 A 
ATOM     30  C   UNL d   1       1.299  30.696  39.897  0.00  0.00     0.037 A 
ATOM     31  C   UNL d   1       1.921  30.965  39.162  0.00  0.00     0.017 A 
BRANCH  29  32
ATOM     32  O   UNL d   1       0.589  31.000  41.448  0.00  0.00    -0.361 OA
ATOM     33  H   UNL d   1       0.348  31.431  41.823  0.00  0.00     0.217 HD
ENDBRANCH  29  32
ENDBRANCH   4  26
BRANCH   8  34
ATOM     34  O   UNL d   1       5.836  32.384  36.151  0.00  0.00    -0.360 OA
ATOM     35  H   UNL d   1       6.344  32.560  36.461  0.00  0.00     0.217 HD
ENDBRANCH   8  34
BRANCH  11  36
ATOM     36  O   UNL d   1       3.596  34.945  35.174  0.00  0.00    -0.361 OA
ATOM     37  H   UNL d   1       3.026  34.980  34.932  0.00  0.00     0.217 HD
ENDBRANCH  11  36
TORSDOF 9
ENDMDL
MODEL 3
REMARK VINA RESULT:    -7.486      1.189      3.822
REMARK INTER + INTRA:           2.309
REMARK INTER:                 -10.132
REMARK INTRA:                  12.441
REMARK UNBOUND:                12.420
REMARK  9 active torsions:
REMARK  status: ('A' for Active; 'I' for Inactive)
REMARK    1  A    between atoms: C_15  and  O_2 
REMARK    2  A    between atoms: O_2  and  C_17 
REMARK    3  A    between atoms: C_11  and  O_3 
REMARK    4  A    between atoms: C_12  and  O_4 
REMARK    5  A    between atoms: C_13  and  O_5 
REMARK    6  A    between atoms: O_8  and  C_23 
REMARK    7  A    between atoms: O_9  and  C_28 
REMARK    8  A    between atoms: O_10  and  C_31 
REMARK    9  A    between atoms: C_18  and  C_22 
ROOT
ATOM      1  O   UNL d   1       3.801  30.400  41.139  0.00  0.00    -0.306 OA
ATOM      2  O   UNL d   1       6.274  31.797  40.173  0.00  0.00    -0.284 OA
ATOM      3  C   UNL d   1       4.548  31.645  40.196  0.00  0.00     0.157 A 
ATOM      4  C   UNL d   1       3.724  31.179  40.518  0.00  0.00     0.123 A 
ATOM      5  C   UNL d   1       5.449  31.331  40.495  0.00  0.00     0.223 A 
ATOM      6  C   UNL d   1       5.526  30.551  41.116  0.00  0.00     0.084 A 
ATOM      7  C   UNL d   1       4.702  30.086  41.438  0.00  0.00     0.096 A 
ATOM      8  C   UNL d   1       6.472  30.236  41.419  0.00  0.00     0.085 A 
ATOM      9  C   UNL d   1       4.766  29.272  42.086  0.00  0.00     0.075 A 
ATOM     10  C   UNL d   1       6.560  29.424  42.067  0.00  0.00     0.074 A 
ATOM     11  C   UNL d   1       5.701  28.939  42.402  0.00  0.00     0.071 A 
ENDROOT
BRANCH   3  12
ATOM     12  O   UNL d   1       4.472  32.425  39.574  0.00  0.00    -0.311 OA
BRANCH  12  13
ATOM     13  C   UNL d   1       4.795  32.347  38.631  0.00  0.00     0.298 A 
ATOM     14  O   UNL d   1       4.867  31.447  38.201  0.00  0.00    -0.351 OA
ATOM     15  C   UNL d   1       5.191  31.369  37.258  0.00  0.00     0.152 A 
ATOM     16  C   UNL d   1       5.441  32.190  36.745  0.00  0.00     0.178 A 
ATOM     17  C   UNL d   1       5.263  30.469  36.827  0.00  0.00     0.042 C 
ATOM     18  C   UNL d   1       5.368  33.090  37.176  0.00  0.00     0.183 A 
ATOM     19  C   UNL d   1       5.045  33.168  38.119  0.00  0.00     0.205 A 
BRANCH  16  20
ATOM     20  O   UNL d   1       5.764  32.112  35.802  0.00  0.00    -0.390 OA
ATOM     21  H   UNL d   1       6.341  31.914  35.687  0.00  0.00     0.210 HD
ENDBRANCH  16  20
BRANCH  18  22
ATOM     22  O   UNL d   1       5.619  33.911  36.663  0.00  0.00    -0.390 OA
ATOM     23  H   UNL d   1       5.609  33.905  36.043  0.00  0.00     0.210 HD
ENDBRANCH  18  22
BRANCH  19  24
ATOM     24  O   UNL d   1       4.973  34.068  38.549  0.00  0.00    -0.388 OA
ATOM     25  H   UNL d   1       5.309  34.542  38.334  0.00  0.00     0.210 HD
ENDBRANCH  19  24
ENDBRANCH  12  13
ENDBRANCH   3  12
BRANCH   4  26
ATOM     26  C   UNL d   1       2.823  31.493  40.219  0.00  0.00     0.001 A 
ATOM     27  C   UNL d   1       2.460  32.363  40.554  0.00  0.00     0.017 A 
ATOM     28  C   UNL d   1       1.559  32.677  40.255  0.00  0.00     0.037 A 
ATOM     29  C   UNL d   1       1.021  32.121  39.620  0.00  0.00     0.065 A 
ATOM     30  C   UNL d   1       1.385  31.252  39.285  0.00  0.00     0.037 A 
ATOM     31  C   UNL d   1       2.286  30.938  39.584  0.00  0.00     0.017 A 
BRANCH  29  32
ATOM     32  O   UNL d   1       0.120  32.435  39.321  0.00  0.00    -0.361 OA
ATOM     33  H   UNL d   1       0.059  32.734  38.781  0.00  0.00     0.217 HD
ENDBRANCH  29  32
ENDBRANCH   4  26
BRANCH   8  34
ATOM     34  O   UNL d   1       7.289  30.709  41.091  0.00  0.00    -0.360 OA
ATOM     35  H   UNL d   1       7.299  30.950  40.519  0.00  0.00     0.217 HD
ENDBRANCH   8  34
BRANCH  11  36
ATOM     36  O   UNL d   1       5.774  28.159  43.024  0.00  0.00    -0.361 OA
ATOM     37  H   UNL d   1       6.222  28.144  43.452  0.00  0.00     0.217 HD
ENDBRANCH  11  36
TORSDOF 9
ENDMDL
MODEL 4
REMARK VINA RESULT:    -7.485     18.463     20.132
REMARK INTER + INTRA:           2.310
REMARK INTER:                 -10.193
REMARK INTRA:                  12.503
REMARK UNBOUND:                12.420
REMARK  9 active torsions:
REMARK  status: ('A' for Active; 'I' for Inactive)
REMARK    1  A    between atoms: C_15  and  O_2 
REMARK    2  A    between atoms: O_2  and  C_17 
REMARK    3  A    between atoms: C_11  and  O_3 
REMARK    4  A    between atoms: C_12  and  O_4 
REMARK    5  A    between atoms: C_13  and  O_5 
REMARK    6  A    between atoms: O_8  and  C_23 
REMARK    7  A    between atoms: O_9  and  C_28 
REMARK    8  A    between atoms: O_10  and  C_31 
REMARK    9  A    between atoms: C_18  and  C_22 
ROOT
ATOM      1  O   UNL d   1      19.130  44.721  45.331  0.00  0.00    -0.306 OA
ATOM      2  O   UNL d   1      17.994  41.945  45.277  0.00  0.00    -0.284 OA
ATOM      3  C   UNL d   1      18.801  43.219  46.128  0.00  0.00     0.157 A 
ATOM      4  C   UNL d   1      19.180  44.145  46.146  0.00  0.00     0.123 A 
ATOM      5  C   UNL d   1      18.373  42.871  45.295  0.00  0.00     0.223 A 
ATOM      6  C   UNL d   1      18.323  43.447  44.479  0.00  0.00     0.084 A 
ATOM      7  C   UNL d   1      18.702  44.372  44.497  0.00  0.00     0.096 A 
ATOM      8  C   UNL d   1      17.874  43.070  43.618  0.00  0.00     0.085 A 
ATOM      9  C   UNL d   1      18.658  44.985  43.655  0.00  0.00     0.075 A 
ATOM     10  C   UNL d   1      17.818  43.665  42.765  0.00  0.00     0.074 A 
ATOM     11  C   UNL d   1      18.213  44.629  42.783  0.00  0.00     0.071 A 
ENDROOT
BRANCH   3  12
ATOM     12  O   UNL d   1      18.851  42.643  46.944  0.00  0.00    -0.311 OA
BRANCH  12  13
ATOM     13  C   UNL d   1      18.017  42.415  47.446  0.00  0.00     0.298 A 
ATOM     14  O   UNL d   1      17.266  43.073  47.494  0.00  0.00    -0.351 OA
ATOM     15  C   UNL d   1      16.432  42.844  47.996  0.00  0.00     0.152 A 
ATOM     16  C   UNL d   1      16.349  41.957  48.451  0.00  0.00     0.178 A 
ATOM     17  C   UNL d   1      15.681  43.503  48.044  0.00  0.00     0.042 C 
ATOM     18  C   UNL d   1      17.100  41.299  48.403  0.00  0.00     0.183 A 
ATOM     19  C   UNL d   1      17.934  41.528  47.901  0.00  0.00     0.205 A 
BRANCH  16  20
ATOM     20  O   UNL d   1      15.515  41.729  48.953  0.00  0.00    -0.390 OA
ATOM     21  H   UNL d   1      14.964  41.921  48.743  0.00  0.00     0.210 HD
ENDBRANCH  16  20
BRANCH  18  22
ATOM     22  O   UNL d   1      17.017  40.412  48.857  0.00  0.00    -0.390 OA
ATOM     23  H   UNL d   1      17.438  40.240  49.279  0.00  0.00     0.210 HD
ENDBRANCH  18  22
BRANCH  19  24
ATOM     24  O   UNL d   1      18.685  40.869  47.853  0.00  0.00    -0.388 OA
ATOM     25  H   UNL d   1      18.948  40.660  48.374  0.00  0.00     0.210 HD
ENDBRANCH  19  24
ENDBRANCH  12  13
ENDBRANCH   3  12
BRANCH   4  26
ATOM     26  C   UNL d   1      19.609  44.494  46.980  0.00  0.00     0.001 A 
ATOM     27  C   UNL d   1      20.512  44.163  47.253  0.00  0.00     0.017 A 
ATOM     28  C   UNL d   1      20.941  44.512  48.087  0.00  0.00     0.037 A 
ATOM     29  C   UNL d   1      20.466  45.191  48.647  0.00  0.00     0.065 A 
ATOM     30  C   UNL d   1      19.562  45.521  48.373  0.00  0.00     0.037 A 
ATOM     31  C   UNL d   1      19.134  45.172  47.540  0.00  0.00     0.017 A 
BRANCH  29  32
ATOM     32  O   UNL d   1      20.894  45.540  49.480  0.00  0.00    -0.361 OA
ATOM     33  H   UNL d   1      20.659  46.038  49.765  0.00  0.00     0.217 HD
ENDBRANCH  29  32
ENDBRANCH   4  26
BRANCH   8  34
ATOM     34  O   UNL d   1      17.498  42.143  43.612  0.00  0.00    -0.360 OA
ATOM     35  H   UNL d   1      16.933  42.039  43.378  0.00  0.00     0.217 HD
ENDBRANCH   8  34
BRANCH  11  36
ATOM     36  O   UNL d   1      18.165  45.208  41.969  0.00  0.00    -0.361 OA
ATOM     37  H   UNL d   1      17.614  45.356  41.726  0.00  0.00     0.217 HD
ENDBRANCH  11  36
TORSDOF 9
ENDMDL
MODEL 5
REMARK VINA RESULT:    -7.388      2.451      4.558
REMARK INTER + INTRA:           2.441
REMARK INTER:                  -9.987
REMARK INTRA:                  12.428
REMARK UNBOUND:                12.420
REMARK  9 active torsions:
REMARK  status: ('A' for Active; 'I' for Inactive)
REMARK    1  A    between atoms: C_15  and  O_2 
REMARK    2  A    between atoms: O_2  and  C_17 
REMARK    3  A    between atoms: C_11  and  O_3 
REMARK    4  A    between atoms: C_12  and  O_4 
REMARK    5  A    between atoms: C_13  and  O_5 
REMARK    6  A    between atoms: O_8  and  C_23 
REMARK    7  A    between atoms: O_9  and  C_28 
REMARK    8  A    between atoms: O_10  and  C_31 
REMARK    9  A    between atoms: C_18  and  C_22 
ROOT
ATOM      1  O   UNL d   1       4.665  32.630  39.808  0.00  0.00    -0.306 OA
ATOM      2  O   UNL d   1       5.457  32.519  36.916  0.00  0.00    -0.284 OA
ATOM      3  C   UNL d   1       4.337  32.998  38.148  0.00  0.00     0.157 A 
ATOM      4  C   UNL d   1       4.073  33.035  39.111  0.00  0.00     0.123 A 
ATOM      5  C   UNL d   1       5.193  32.556  37.880  0.00  0.00     0.223 A 
ATOM      6  C   UNL d   1       5.786  32.151  38.577  0.00  0.00     0.084 A 
ATOM      7  C   UNL d   1       5.522  32.188  39.541  0.00  0.00     0.096 A 
ATOM      8  C   UNL d   1       6.674  31.693  38.283  0.00  0.00     0.085 A 
ATOM      9  C   UNL d   1       6.128  31.770  40.278  0.00  0.00     0.075 A 
ATOM     10  C   UNL d   1       7.297  31.269  39.003  0.00  0.00     0.074 A 
ATOM     11  C   UNL d   1       7.022  31.308  40.007  0.00  0.00     0.071 A 
ENDROOT
BRANCH   3  12
ATOM     12  O   UNL d   1       3.745  33.403  37.451  0.00  0.00    -0.311 OA
BRANCH  12  13
ATOM     13  C   UNL d   1       4.050  34.207  36.941  0.00  0.00     0.298 A 
ATOM     14  O   UNL d   1       4.761  34.799  37.320  0.00  0.00    -0.351 OA
ATOM     15  C   UNL d   1       5.067  35.603  36.810  0.00  0.00     0.152 A 
ATOM     16  C   UNL d   1       4.661  35.815  35.921  0.00  0.00     0.178 A 
ATOM     17  C   UNL d   1       5.778  36.195  37.189  0.00  0.00     0.042 C 
ATOM     18  C   UNL d   1       3.950  35.223  35.542  0.00  0.00     0.183 A 
ATOM     19  C   UNL d   1       3.644  34.419  36.052  0.00  0.00     0.205 A 
BRANCH  16  20
ATOM     20  O   UNL d   1       4.967  36.619  35.411  0.00  0.00    -0.390 OA
ATOM     21  H   UNL d   1       5.055  36.583  34.799  0.00  0.00     0.210 HD
ENDBRANCH  16  20
BRANCH  18  22
ATOM     22  O   UNL d   1       3.544  35.436  34.653  0.00  0.00    -0.390 OA
ATOM     23  H   UNL d   1       3.448  34.983  34.240  0.00  0.00     0.210 HD
ENDBRANCH  18  22
BRANCH  19  24
ATOM     24  O   UNL d   1       2.933  33.827  35.673  0.00  0.00    -0.388 OA
ATOM     25  H   UNL d   1       2.784  33.299  35.961  0.00  0.00     0.210 HD
ENDBRANCH  19  24
ENDBRANCH  12  13
ENDBRANCH   3  12
BRANCH   4  26
ATOM     26  C   UNL d   1       3.217  33.477  39.379  0.00  0.00     0.001 A 
ATOM     27  C   UNL d   1       2.345  33.012  39.225  0.00  0.00     0.017 A 
ATOM     28  C   UNL d   1       1.489  33.455  39.492  0.00  0.00     0.037 A 
ATOM     29  C   UNL d   1       1.505  34.361  39.913  0.00  0.00     0.065 A 
ATOM     30  C   UNL d   1       2.377  34.826  40.068  0.00  0.00     0.037 A 
ATOM     31  C   UNL d   1       3.233  34.384  39.800  0.00  0.00     0.017 A 
BRANCH  29  32
ATOM     32  O   UNL d   1       0.649  34.803  40.181  0.00  0.00    -0.361 OA
ATOM     33  H   UNL d   1       0.340  34.605  40.681  0.00  0.00     0.217 HD
ENDBRANCH  29  32
ENDBRANCH   4  26
BRANCH   8  34
ATOM     34  O   UNL d   1       6.928  31.662  37.317  0.00  0.00    -0.360 OA
ATOM     35  H   UNL d   1       7.342  32.066  37.091  0.00  0.00     0.217 HD
ENDBRANCH   8  34
BRANCH  11  36
ATOM     36  O   UNL d   1       7.612  30.904  40.707  0.00  0.00    -0.361 OA
ATOM     37  H   UNL d   1       7.930  31.270  41.093  0.00  0.00     0.217 HD
ENDBRANCH  11  36
TORSDOF 9
ENDMDL
