MODEL 1
REMARK VINA RESULT:    -5.762      0.000      0.000
REMARK INTER + INTRA:          -6.344
REMARK INTER:                  -7.277
REMARK INTRA:                   0.933
REMARK UNBOUND:                 0.934
REMARK  6 active torsions:
REMARK  status: ('A' for Active; 'I' for Inactive)
REMARK    1  A    between atoms: O_1  and  C_12 
REMARK    2  A    between atoms: O_1  and  C_13 
REMARK    3  A    between atoms: O_2  and  C_9 
REMARK    4  A    between atoms: O_3  and  C_10 
REMARK    5  A    between atoms: O_4  and  C_11 
REMARK    6  A    between atoms: C_6  and  C_12 
ROOT
ATOM      1  C   UNL d   1       5.444  31.995  37.226  0.00  0.00     0.044 A 
ATOM      2  C   UNL d   1       5.642  31.015  37.226  0.00  0.00     0.057 A 
ATOM      3  C   UNL d   1       4.737  32.362  36.621  0.00  0.00     0.057 A 
ATOM      4  C   UNL d   1       4.229  31.749  36.017  0.00  0.00     0.102 A 
ATOM      5  C   UNL d   1       5.134  30.402  36.621  0.00  0.00     0.102 A 
ATOM      6  C   UNL d   1       4.427  30.769  36.017  0.00  0.00     0.132 A 
ENDROOT
BRANCH   1   7
ATOM      7  C   UNL d   1       5.952  32.608  37.830  0.00  0.00     0.293 C 
ATOM      8  O   UNL d   1       6.556  33.305  37.443  0.00  0.00    -0.259 OA
BRANCH   7   9
ATOM      9  O   UNL d   1       5.857  32.525  38.822  0.00  0.00    -0.318 OA
BRANCH   9  10
ATOM     10  C   UNL d   1       6.425  33.081  39.428  0.00  0.00     0.174 C 
ATOM     11  C   UNL d   1       6.447  32.890  40.409  0.00  0.00     0.034 C 
ENDBRANCH   9  10
ENDBRANCH   7   9
ENDBRANCH   1   7
BRANCH   5  12
ATOM     12  O   UNL d   1       5.332  29.422  36.621  0.00  0.00    -0.358 OA
ATOM     13  H   UNL d   1       5.621  29.164  36.138  0.00  0.00     0.217 HD
ENDBRANCH   5  12
BRANCH   4  14
ATOM     14  O   UNL d   1       3.522  32.116  35.412  0.00  0.00    -0.358 OA
ATOM     15  H   UNL d   1       3.683  32.437  34.906  0.00  0.00     0.217 HD
ENDBRANCH   4  14
BRANCH   6  16
ATOM     16  O   UNL d   1       3.918  30.156  35.412  0.00  0.00    -0.356 OA
ATOM     17  H   UNL d   1       3.334  30.290  35.255  0.00  0.00     0.218 HD
ENDBRANCH   6  16
TORSDOF 6
ENDMDL
MODEL 2
REMARK VINA RESULT:    -5.659      1.930      4.316
REMARK INTER + INTRA:          -6.214
REMARK INTER:                  -7.171
REMARK INTRA:                   0.957
REMARK UNBOUND:                 0.934
REMARK  6 active torsions:
REMARK  status: ('A' for Active; 'I' for Inactive)
REMARK    1  A    between atoms: O_1  and  C_12 
REMARK    2  A    between atoms: O_1  and  C_13 
REMARK    3  A    between atoms: O_2  and  C_9 
REMARK    4  A    between atoms: O_3  and  C_10 
REMARK    5  A    between atoms: O_4  and  C_11 
REMARK    6  A    between atoms: C_6  and  C_12 
ROOT
ATOM      1  C   UNL d   1       6.510  32.231  39.134  0.00  0.00     0.044 A 
ATOM      2  C   UNL d   1       5.778  32.406  39.792  0.00  0.00     0.057 A 
ATOM      3  C   UNL d   1       7.246  31.594  39.362  0.00  0.00     0.057 A 
ATOM      4  C   UNL d   1       7.250  31.132  40.249  0.00  0.00     0.102 A 
ATOM      5  C   UNL d   1       5.782  31.945  40.679  0.00  0.00     0.102 A 
ATOM      6  C   UNL d   1       6.518  31.307  40.907  0.00  0.00     0.132 A 
ENDROOT
BRANCH   1   7
ATOM      7  C   UNL d   1       6.506  32.693  38.247  0.00  0.00     0.293 C 
ATOM      8  O   UNL d   1       6.958  33.580  38.143  0.00  0.00    -0.259 OA
BRANCH   7   9
ATOM      9  O   UNL d   1       6.051  32.269  37.464  0.00  0.00    -0.318 OA
BRANCH   9  10
ATOM     10  C   UNL d   1       5.696  32.839  36.723  0.00  0.00     0.174 C 
ATOM     11  C   UNL d   1       5.012  32.471  36.093  0.00  0.00     0.034 C 
ENDBRANCH   9  10
ENDBRANCH   7   9
ENDBRANCH   1   7
BRANCH   5  12
ATOM     12  O   UNL d   1       5.049  32.120  41.337  0.00  0.00    -0.358 OA
ATOM     13  H   UNL d   1       4.946  31.720  41.799  0.00  0.00     0.217 HD
ENDBRANCH   5  12
BRANCH   4  14
ATOM     14  O   UNL d   1       7.986  30.495  40.478  0.00  0.00    -0.358 OA
ATOM     15  H   UNL d   1       7.856  29.962  40.766  0.00  0.00     0.217 HD
ENDBRANCH   4  14
BRANCH   6  16
ATOM     16  O   UNL d   1       6.521  30.846  41.794  0.00  0.00    -0.356 OA
ATOM     17  H   UNL d   1       6.634  30.237  41.826  0.00  0.00     0.218 HD
ENDBRANCH   6  16
TORSDOF 6
ENDMDL
MODEL 3
REMARK VINA RESULT:    -5.549     17.353     18.663
REMARK INTER + INTRA:          -6.074
REMARK INTER:                  -6.973
REMARK INTRA:                   0.899
REMARK UNBOUND:                 0.934
REMARK  6 active torsions:
REMARK  status: ('A' for Active; 'I' for Inactive)
REMARK    1  A    between atoms: O_1  and  C_12 
REMARK    2  A    between atoms: O_1  and  C_13 
REMARK    3  A    between atoms: O_2  and  C_9 
REMARK    4  A    between atoms: O_3  and  C_10 
REMARK    5  A    between atoms: O_4  and  C_11 
REMARK    6  A    between atoms: C_6  and  C_12 
ROOT
ATOM      1  C   UNL d   1      16.580  42.445  47.050  0.00  0.00     0.044 A 
ATOM      2  C   UNL d   1      17.520  42.492  47.390  0.00  0.00     0.057 A 
ATOM      3  C   UNL d   1      15.947  41.767  47.424  0.00  0.00     0.057 A 
ATOM      4  C   UNL d   1      16.254  41.136  48.137  0.00  0.00     0.102 A 
ATOM      5  C   UNL d   1      17.826  41.862  48.103  0.00  0.00     0.102 A 
ATOM      6  C   UNL d   1      17.193  41.184  48.476  0.00  0.00     0.132 A 
ENDROOT
BRANCH   1   7
ATOM      7  C   UNL d   1      16.274  43.076  46.337  0.00  0.00     0.293 C 
ATOM      8  O   UNL d   1      15.745  43.888  46.582  0.00  0.00    -0.259 OA
BRANCH   7   9
ATOM      9  O   UNL d   1      16.497  42.894  45.380  0.00  0.00    -0.318 OA
BRANCH   9  10
ATOM     10  C   UNL d   1      15.960  43.320  44.652  0.00  0.00     0.174 C 
ATOM     11  C   UNL d   1      16.118  43.064  43.698  0.00  0.00     0.034 C 
ENDBRANCH   9  10
ENDBRANCH   7   9
ENDBRANCH   1   7
BRANCH   5  12
ATOM     12  O   UNL d   1      18.766  41.909  48.442  0.00  0.00    -0.358 OA
ATOM     13  H   UNL d   1      19.039  41.401  48.671  0.00  0.00     0.217 HD
ENDBRANCH   5  12
BRANCH   4  14
ATOM     14  O   UNL d   1      15.621  40.459  48.511  0.00  0.00    -0.358 OA
ATOM     15  H   UNL d   1      15.804  40.083  48.969  0.00  0.00     0.217 HD
ENDBRANCH   4  14
BRANCH   6  16
ATOM     16  O   UNL d   1      17.500  40.553  49.189  0.00  0.00    -0.356 OA
ATOM     17  H   UNL d   1      17.851  40.064  49.041  0.00  0.00     0.218 HD
ENDBRANCH   6  16
TORSDOF 6
ENDMDL
MODEL 4
REMARK VINA RESULT:    -5.546     17.378     18.670
REMARK INTER + INTRA:          -6.071
REMARK INTER:                  -6.991
REMARK INTRA:                   0.920
REMARK UNBOUND:                 0.934
REMARK  6 active torsions:
REMARK  status: ('A' for Active; 'I' for Inactive)
REMARK    1  A    between atoms: O_1  and  C_12 
REMARK    2  A    between atoms: O_1  and  C_13 
REMARK    3  A    between atoms: O_2  and  C_9 
REMARK    4  A    between atoms: O_3  and  C_10 
REMARK    5  A    between atoms: O_4  and  C_11 
REMARK    6  A    between atoms: C_6  and  C_12 
ROOT
ATOM      1  C   UNL d   1      16.578  42.433  47.045  0.00  0.00     0.044 A 
ATOM      2  C   UNL d   1      15.946  41.761  47.431  0.00  0.00     0.057 A 
ATOM      3  C   UNL d   1      17.521  42.480  47.376  0.00  0.00     0.057 A 
ATOM      4  C   UNL d   1      17.832  41.855  48.092  0.00  0.00     0.102 A 
ATOM      5  C   UNL d   1      16.257  41.136  48.148  0.00  0.00     0.102 A 
ATOM      6  C   UNL d   1      17.200  41.183  48.478  0.00  0.00     0.132 A 
ENDROOT
BRANCH   1   7
ATOM      7  C   UNL d   1      16.268  43.058  46.329  0.00  0.00     0.293 C 
ATOM      8  O   UNL d   1      15.665  43.822  46.559  0.00  0.00    -0.259 OA
BRANCH   7   9
ATOM      9  O   UNL d   1      16.560  42.918  45.383  0.00  0.00    -0.318 OA
BRANCH   9  10
ATOM     10  C   UNL d   1      16.002  43.270  44.631  0.00  0.00     0.174 C 
ATOM     11  C   UNL d   1      16.211  43.008  43.689  0.00  0.00     0.034 C 
ENDBRANCH   9  10
ENDBRANCH   7   9
ENDBRANCH   1   7
BRANCH   5  12
ATOM     12  O   UNL d   1      15.625  40.464  48.534  0.00  0.00    -0.358 OA
ATOM     13  H   UNL d   1      15.618  39.884  48.315  0.00  0.00     0.217 HD
ENDBRANCH   5  12
BRANCH   4  14
ATOM     14  O   UNL d   1      18.774  41.902  48.422  0.00  0.00    -0.358 OA
ATOM     15  H   UNL d   1      19.085  42.438  48.396  0.00  0.00     0.217 HD
ENDBRANCH   4  14
BRANCH   6  16
ATOM     16  O   UNL d   1      17.510  40.558  49.194  0.00  0.00    -0.356 OA
ATOM     17  H   UNL d   1      18.050  40.260  49.132  0.00  0.00     0.218 HD
ENDBRANCH   6  16
TORSDOF 6
ENDMDL
MODEL 5
REMARK VINA RESULT:    -5.470     30.555     31.750
REMARK INTER + INTRA:          -5.975
REMARK INTER:                  -7.006
REMARK INTRA:                   1.031
REMARK UNBOUND:                 0.934
REMARK  6 active torsions:
REMARK  status: ('A' for Active; 'I' for Inactive)
REMARK    1  A    between atoms: O_1  and  C_12 
REMARK    2  A    between atoms: O_1  and  C_13 
REMARK    3  A    between atoms: O_2  and  C_9 
REMARK    4  A    between atoms: O_3  and  C_10 
REMARK    5  A    between atoms: O_4  and  C_11 
REMARK    6  A    between atoms: C_6  and  C_12 
ROOT
ATOM      1  C   UNL d   1      36.632  35.836  35.456  0.00  0.00     0.044 A 
ATOM      2  C   UNL d   1      37.198  36.525  35.005  0.00  0.00     0.057 A 
ATOM      3  C   UNL d   1      35.798  36.109  35.935  0.00  0.00     0.057 A 
ATOM      4  C   UNL d   1      35.530  37.073  35.963  0.00  0.00     0.102 A 
ATOM      5  C   UNL d   1      36.931  37.488  35.032  0.00  0.00     0.102 A 
ATOM      6  C   UNL d   1      36.097  37.762  35.511  0.00  0.00     0.132 A 
ENDROOT
BRANCH   1   7
ATOM      7  C   UNL d   1      36.900  34.873  35.428  0.00  0.00     0.293 C 
ATOM      8  O   UNL d   1      37.156  34.450  34.559  0.00  0.00    -0.259 OA
BRANCH   7   9
ATOM      9  O   UNL d   1      36.911  34.332  36.270  0.00  0.00    -0.318 OA
BRANCH   9  10
ATOM     10  C   UNL d   1      37.125  33.356  36.235  0.00  0.00     0.174 C 
ATOM     11  C   UNL d   1      36.905  32.768  37.012  0.00  0.00     0.034 C 
ENDBRANCH   9  10
ENDBRANCH   7   9
ENDBRANCH   1   7
BRANCH   5  12
ATOM     12  O   UNL d   1      37.497  38.178  34.581  0.00  0.00    -0.358 OA
ATOM     13  H   UNL d   1      37.389  38.780  34.678  0.00  0.00     0.217 HD
ENDBRANCH   5  12
BRANCH   4  14
ATOM     14  O   UNL d   1      34.696  37.346  36.442  0.00  0.00    -0.358 OA
ATOM     15  H   UNL d   1      34.689  37.372  37.061  0.00  0.00     0.217 HD
ENDBRANCH   4  14
BRANCH   6  16
ATOM     16  O   UNL d   1      35.829  38.725  35.539  0.00  0.00    -0.356 OA
ATOM     17  H   UNL d   1      35.624  38.975  36.068  0.00  0.00     0.218 HD
ENDBRANCH   6  16
TORSDOF 6
ENDMDL
