MODEL 1
REMARK VINA RESULT:    -8.297      0.000      0.000
REMARK INTER + INTRA:          -8.267
REMARK INTER:                  -9.282
REMARK INTRA:                   1.015
REMARK UNBOUND:                 1.000
REMARK  3 active torsions:
REMARK  status: ('A' for Active; 'I' for Inactive)
REMARK    1  A    between atoms: O_2  and  C_10 
REMARK    2  A    between atoms: O_4  and  C_13 
REMARK    3  A    between atoms: C_7  and  C_9 
ROOT
ATOM      1  O   UNL d   1       6.381  30.726  40.676  0.00  0.00    -0.309 OA
ATOM      2  O   UNL d   1       3.437  30.187  40.473  0.00  0.00    -0.287 OA
ATOM      3  C   UNL d   1       4.961  29.920  41.253  0.00  0.00     0.081 A 
ATOM      4  C   UNL d   1       5.942  30.100  41.320  0.00  0.00     0.095 A 
ATOM      5  C   UNL d   1       5.839  31.173  39.964  0.00  0.00     0.090 A 
ATOM      6  C   UNL d   1       4.419  30.367  40.541  0.00  0.00     0.190 A 
ATOM      7  C   UNL d   1       4.490  29.271  41.917  0.00  0.00     0.085 A 
ATOM      8  C   UNL d   1       4.858  30.993  39.897  0.00  0.00     0.094 A 
ATOM      9  C   UNL d   1       6.521  29.643  42.056  0.00  0.00     0.075 A 
ATOM     10  C   UNL d   1       6.070  28.989  42.731  0.00  0.00     0.071 A 
ATOM     11  C   UNL d   1       5.049  28.802  42.661  0.00  0.00     0.074 A 
ENDROOT
BRANCH   5  12
ATOM     12  C   UNL d   1       6.278  31.799  39.320  0.00  0.00    -0.002 A 
ATOM     13  C   UNL d   1       6.492  32.735  39.600  0.00  0.00     0.014 A 
ATOM     14  C   UNL d   1       6.931  33.361  38.955  0.00  0.00     0.001 A 
ATOM     15  C   UNL d   1       7.156  33.051  38.032  0.00  0.00     0.000 A 
ATOM     16  C   UNL d   1       6.942  32.115  37.752  0.00  0.00     0.001 A 
ATOM     17  C   UNL d   1       6.503  31.489  38.396  0.00  0.00     0.014 A 
ENDBRANCH   5  12
BRANCH   7  18
ATOM     18  O   UNL d   1       3.508  29.098  41.840  0.00  0.00    -0.360 OA
ATOM     19  H   UNL d   1       3.215  29.208  41.305  0.00  0.00     0.217 HD
ENDBRANCH   7  18
BRANCH  10  20
ATOM     20  O   UNL d   1       6.616  28.545  43.442  0.00  0.00    -0.361 OA
ATOM     21  H   UNL d   1       6.919  28.888  43.859  0.00  0.00     0.217 HD
ENDBRANCH  10  20
TORSDOF 3
ENDMDL
MODEL 2
REMARK VINA RESULT:    -8.215     16.933     18.129
REMARK INTER + INTRA:          -8.176
REMARK INTER:                  -9.605
REMARK INTRA:                   1.429
REMARK UNBOUND:                 1.000
REMARK  3 active torsions:
REMARK  status: ('A' for Active; 'I' for Inactive)
REMARK    1  A    between atoms: O_2  and  C_10 
REMARK    2  A    between atoms: O_4  and  C_13 
REMARK    3  A    between atoms: C_7  and  C_9 
ROOT
ATOM      1  O   UNL d   1      18.112  41.488  34.285  0.00  0.00    -0.309 OA
ATOM      2  O   UNL d   1      20.109  39.254  34.432  0.00  0.00    -0.287 OA
ATOM      3  C   UNL d   1      19.163  40.361  33.494  0.00  0.00     0.081 A 
ATOM      4  C   UNL d   1      18.497  41.105  33.445  0.00  0.00     0.095 A 
ATOM      5  C   UNL d   1      18.393  41.127  35.174  0.00  0.00     0.090 A 
ATOM      6  C   UNL d   1      19.443  39.999  34.383  0.00  0.00     0.190 A 
ATOM      7  C   UNL d   1      19.572  39.952  32.628  0.00  0.00     0.085 A 
ATOM      8  C   UNL d   1      19.059  40.382  35.223  0.00  0.00     0.094 A 
ATOM      9  C   UNL d   1      18.194  41.493  32.526  0.00  0.00     0.075 A 
ATOM     10  C   UNL d   1      18.591  41.099  31.647  0.00  0.00     0.071 A 
ATOM     11  C   UNL d   1      19.284  40.324  31.699  0.00  0.00     0.074 A 
ENDROOT
BRANCH   5  12
ATOM     12  C   UNL d   1      18.008  41.510  36.014  0.00  0.00    -0.002 A 
ATOM     13  C   UNL d   1      18.191  41.070  36.893  0.00  0.00     0.014 A 
ATOM     14  C   UNL d   1      17.806  41.453  37.733  0.00  0.00     0.001 A 
ATOM     15  C   UNL d   1      17.238  42.275  37.693  0.00  0.00     0.000 A 
ATOM     16  C   UNL d   1      17.056  42.715  36.814  0.00  0.00     0.001 A 
ATOM     17  C   UNL d   1      17.441  42.332  35.974  0.00  0.00     0.014 A 
ENDBRANCH   5  12
BRANCH   7  18
ATOM     18  O   UNL d   1      20.237  39.208  32.689  0.00  0.00    -0.360 OA
ATOM     19  H   UNL d   1      20.811  39.287  32.470  0.00  0.00     0.217 HD
ENDBRANCH   7  18
BRANCH  10  20
ATOM     20  O   UNL d   1      18.307  41.463  30.760  0.00  0.00    -0.361 OA
ATOM     21  H   UNL d   1      17.772  41.279  30.507  0.00  0.00     0.217 HD
ENDBRANCH  10  20
TORSDOF 3
ENDMDL
MODEL 3
REMARK VINA RESULT:    -7.770      0.844      2.167
REMARK INTER + INTRA:          -7.679
REMARK INTER:                  -8.678
REMARK INTRA:                   0.999
REMARK UNBOUND:                 1.000
REMARK  3 active torsions:
REMARK  status: ('A' for Active; 'I' for Inactive)
REMARK    1  A    between atoms: O_2  and  C_10 
REMARK    2  A    between atoms: O_4  and  C_13 
REMARK    3  A    between atoms: C_7  and  C_9 
ROOT
ATOM      1  O   UNL d   1       5.022  30.952  40.312  0.00  0.00    -0.309 OA
ATOM      2  O   UNL d   1       6.873  29.463  42.144  0.00  0.00    -0.287 OA
ATOM      3  C   UNL d   1       5.268  29.823  41.602  0.00  0.00     0.081 A 
ATOM      4  C   UNL d   1       4.651  30.319  40.991  0.00  0.00     0.095 A 
ATOM      5  C   UNL d   1       6.011  31.089  40.243  0.00  0.00     0.090 A 
ATOM      6  C   UNL d   1       6.256  29.960  41.533  0.00  0.00     0.190 A 
ATOM      7  C   UNL d   1       4.896  29.161  42.314  0.00  0.00     0.085 A 
ATOM      8  C   UNL d   1       6.628  30.593  40.854  0.00  0.00     0.094 A 
ATOM      9  C   UNL d   1       3.619  30.188  41.050  0.00  0.00     0.075 A 
ATOM     10  C   UNL d   1       3.225  29.530  41.756  0.00  0.00     0.071 A 
ATOM     11  C   UNL d   1       3.868  29.014  42.391  0.00  0.00     0.074 A 
ENDROOT
BRANCH   5  12
ATOM     12  C   UNL d   1       6.382  31.722  39.564  0.00  0.00    -0.002 A 
ATOM     13  C   UNL d   1       6.586  31.399  38.639  0.00  0.00     0.014 A 
ATOM     14  C   UNL d   1       6.958  32.032  37.960  0.00  0.00     0.001 A 
ATOM     15  C   UNL d   1       7.125  32.987  38.205  0.00  0.00     0.000 A 
ATOM     16  C   UNL d   1       6.920  33.309  39.129  0.00  0.00     0.001 A 
ATOM     17  C   UNL d   1       6.549  32.677  39.809  0.00  0.00     0.014 A 
ENDBRANCH   5  12
BRANCH   7  18
ATOM     18  O   UNL d   1       5.522  28.670  42.920  0.00  0.00    -0.360 OA
ATOM     19  H   UNL d   1       5.299  28.273  43.340  0.00  0.00     0.217 HD
ENDBRANCH   7  18
BRANCH  10  20
ATOM     20  O   UNL d   1       2.236  29.397  41.821  0.00  0.00    -0.361 OA
ATOM     21  H   UNL d   1       2.000  28.823  41.811  0.00  0.00     0.217 HD
ENDBRANCH  10  20
TORSDOF 3
ENDMDL
MODEL 4
REMARK VINA RESULT:    -7.767      1.427      2.632
REMARK INTER + INTRA:          -7.675
REMARK INTER:                  -8.689
REMARK INTRA:                   1.015
REMARK UNBOUND:                 1.000
REMARK  3 active torsions:
REMARK  status: ('A' for Active; 'I' for Inactive)
REMARK    1  A    between atoms: O_2  and  C_10 
REMARK    2  A    between atoms: O_4  and  C_13 
REMARK    3  A    between atoms: C_7  and  C_9 
ROOT
ATOM      1  O   UNL d   1       4.949  31.366  39.125  0.00  0.00    -0.309 OA
ATOM      2  O   UNL d   1       7.720  31.218  40.265  0.00  0.00    -0.287 OA
ATOM      3  C   UNL d   1       6.057  30.734  40.297  0.00  0.00     0.081 A 
ATOM      4  C   UNL d   1       5.133  30.784  39.917  0.00  0.00     0.095 A 
ATOM      5  C   UNL d   1       5.688  31.899  38.713  0.00  0.00     0.090 A 
ATOM      6  C   UNL d   1       6.796  31.267  39.885  0.00  0.00     0.190 A 
ATOM      7  C   UNL d   1       6.264  30.133  41.121  0.00  0.00     0.085 A 
ATOM      8  C   UNL d   1       6.612  31.850  39.093  0.00  0.00     0.094 A 
ATOM      9  C   UNL d   1       4.353  30.234  40.335  0.00  0.00     0.075 A 
ATOM     10  C   UNL d   1       4.538  29.626  41.160  0.00  0.00     0.071 A 
ATOM     11  C   UNL d   1       5.499  29.574  41.555  0.00  0.00     0.074 A 
ENDROOT
BRANCH   5  12
ATOM     12  C   UNL d   1       5.503  32.481  37.922  0.00  0.00    -0.002 A 
ATOM     13  C   UNL d   1       5.429  32.077  37.010  0.00  0.00     0.014 A 
ATOM     14  C   UNL d   1       5.245  32.659  36.218  0.00  0.00     0.001 A 
ATOM     15  C   UNL d   1       5.134  33.646  36.338  0.00  0.00     0.000 A 
ATOM     16  C   UNL d   1       5.208  34.050  37.250  0.00  0.00     0.001 A 
ATOM     17  C   UNL d   1       5.393  33.468  38.041  0.00  0.00     0.014 A 
ENDBRANCH   5  12
BRANCH   7  18
ATOM     18  O   UNL d   1       7.192  30.091  41.493  0.00  0.00    -0.360 OA
ATOM     19  H   UNL d   1       7.455  30.601  41.725  0.00  0.00     0.217 HD
ENDBRANCH   7  18
BRANCH  10  20
ATOM     20  O   UNL d   1       3.796  29.094  41.569  0.00  0.00    -0.361 OA
ATOM     21  H   UNL d   1       3.485  29.320  42.056  0.00  0.00     0.217 HD
ENDBRANCH  10  20
TORSDOF 3
ENDMDL
MODEL 5
REMARK VINA RESULT:    -7.543     16.687     17.925
REMARK INTER + INTRA:          -7.425
REMARK INTER:                  -8.471
REMARK INTRA:                   1.047
REMARK UNBOUND:                 1.000
REMARK  3 active torsions:
REMARK  status: ('A' for Active; 'I' for Inactive)
REMARK    1  A    between atoms: O_2  and  C_10 
REMARK    2  A    between atoms: O_4  and  C_13 
REMARK    3  A    between atoms: C_7  and  C_9 
ROOT
ATOM      1  O   UNL d   1      18.753  40.704  33.375  0.00  0.00    -0.309 OA
ATOM      2  O   UNL d   1      16.215  39.741  32.098  0.00  0.00    -0.287 OA
ATOM      3  C   UNL d   1      17.926  39.999  32.027  0.00  0.00     0.081 A 
ATOM      4  C   UNL d   1      18.772  40.320  32.453  0.00  0.00     0.095 A 
ATOM      5  C   UNL d   1      17.887  40.768  33.872  0.00  0.00     0.090 A 
ATOM      6  C   UNL d   1      17.061  40.062  32.524  0.00  0.00     0.190 A 
ATOM      7  C   UNL d   1      17.931  39.596  31.067  0.00  0.00     0.085 A 
ATOM      8  C   UNL d   1      17.041  40.447  33.447  0.00  0.00     0.094 A 
ATOM      9  C   UNL d   1      19.681  40.260  31.948  0.00  0.00     0.075 A 
ATOM     10  C   UNL d   1      19.710  39.861  30.986  0.00  0.00     0.071 A 
ATOM     11  C   UNL d   1      18.829  39.527  30.543  0.00  0.00     0.074 A 
ENDROOT
BRANCH   5  12
ATOM     12  C   UNL d   1      17.868  41.153  34.795  0.00  0.00    -0.002 A 
ATOM     13  C   UNL d   1      18.282  40.651  35.555  0.00  0.00     0.014 A 
ATOM     14  C   UNL d   1      18.262  41.036  36.478  0.00  0.00     0.001 A 
ATOM     15  C   UNL d   1      17.829  41.922  36.641  0.00  0.00     0.000 A 
ATOM     16  C   UNL d   1      17.414  42.423  35.881  0.00  0.00     0.001 A 
ATOM     17  C   UNL d   1      17.434  42.039  34.959  0.00  0.00     0.014 A 
ENDBRANCH   5  12
BRANCH   7  18
ATOM     18  O   UNL d   1      17.079  39.278  30.651  0.00  0.00    -0.360 OA
ATOM     19  H   UNL d   1      16.619  39.678  30.543  0.00  0.00     0.217 HD
ENDBRANCH   7  18
BRANCH  10  20
ATOM     20  O   UNL d   1      20.577  39.799  30.492  0.00  0.00    -0.361 OA
ATOM     21  H   UNL d   1      20.945  39.307  30.573  0.00  0.00     0.217 HD
ENDBRANCH  10  20
TORSDOF 3
ENDMDL
