MODEL 1
REMARK VINA RESULT:    -9.536      0.000      0.000
REMARK INTER + INTRA:          -5.165
REMARK INTER:                 -15.350
REMARK INTRA:                  10.185
REMARK UNBOUND:                 9.945
REMARK  14 active torsions:
REMARK  status: ('A' for Active; 'I' for Inactive)
REMARK    1  A    between atoms: C_15  and  O_1 
REMARK    2  A    between atoms: C_18  and  O_1 
REMARK    3  A    between atoms: C_16  and  O_4 
REMARK    4  A    between atoms: C_20  and  O_5 
REMARK    5  A    between atoms: O_5  and  C_27 
REMARK    6  A    between atoms: C_17  and  O_6 
REMARK    7  A    between atoms: C_19  and  O_7 
REMARK    8  A    between atoms: C_22  and  O_8 
REMARK    9  A    between atoms: C_23  and  O_9 
REMARK   10  A    between atoms: O_10  and  C_25 
REMARK   11  A    between atoms: O_12  and  C_31 
REMARK   12  A    between atoms: O_14  and  C_41 
REMARK   13  A    between atoms: C_21  and  C_25 
REMARK   14  A    between atoms: C_34  and  C_36 
ROOT
ATOM      1  O   UNL d   1       4.684  32.125  36.893  0.00  0.00    -0.348 OA
ATOM      2  C   UNL d   1       5.746  31.360  38.027  0.00  0.00     0.211 A 
ATOM      3  C   UNL d   1       5.654  30.497  37.530  0.00  0.00     0.183 A 
ATOM      4  C   UNL d   1       5.077  30.448  36.715  0.00  0.00     0.180 A 
ATOM      5  C   UNL d   1       5.261  32.174  37.708  0.00  0.00     0.298 A 
ATOM      6  C   UNL d   1       4.592  31.262  36.397  0.00  0.00     0.179 A 
ENDROOT
BRANCH   5   7
ATOM      7  O   UNL d   1       5.352  33.037  38.205  0.00  0.00    -0.318 OA
BRANCH   7   8
ATOM      8  C   UNL d   1       4.832  33.840  37.913  0.00  0.00     0.077 A 
ATOM      9  C   UNL d   1       5.125  34.377  37.070  0.00  0.00     0.075 A 
ATOM     10  C   UNL d   1       4.576  35.211  36.775  0.00  0.00     0.095 A 
ATOM     11  O   UNL d   1       4.864  35.722  35.965  0.00  0.00    -0.309 OA
ATOM     12  C   UNL d   1       3.770  35.504  37.291  0.00  0.00     0.081 A 
ATOM     13  C   UNL d   1       4.346  36.525  35.670  0.00  0.00     0.090 A 
ATOM     14  C   UNL d   1       3.541  36.817  36.186  0.00  0.00     0.094 A 
ATOM     15  C   UNL d   1       3.253  36.307  36.996  0.00  0.00     0.190 A 
ATOM     16  O   UNL d   1       2.448  36.600  37.511  0.00  0.00    -0.287 OA
ATOM     17  C   UNL d   1       3.459  34.982  38.137  0.00  0.00     0.085 A 
ATOM     18  C   UNL d   1       3.993  34.145  38.450  0.00  0.00     0.074 A 
BRANCH  13  19
ATOM     19  C   UNL d   1       4.634  37.036  34.860  0.00  0.00    -0.002 A 
ATOM     20  C   UNL d   1       4.748  38.028  34.908  0.00  0.00     0.017 A 
ATOM     21  C   UNL d   1       5.035  38.538  34.098  0.00  0.00     0.037 A 
ATOM     22  C   UNL d   1       5.208  38.057  33.239  0.00  0.00     0.065 A 
ATOM     23  C   UNL d   1       5.094  37.064  33.190  0.00  0.00     0.037 A 
ATOM     24  C   UNL d   1       4.806  36.554  34.001  0.00  0.00     0.017 A 
BRANCH  22  25
ATOM     25  O   UNL d   1       5.496  38.568  32.428  0.00  0.00    -0.361 OA
ATOM     26  H   UNL d   1       5.256  39.128  32.314  0.00  0.00     0.217 HD
ENDBRANCH  22  25
ENDBRANCH  13  19
BRANCH  17  27
ATOM     27  O   UNL d   1       2.652  35.284  38.645  0.00  0.00    -0.360 OA
ATOM     28  H   UNL d   1       2.692  35.391  39.254  0.00  0.00     0.217 HD
ENDBRANCH  17  27
ENDBRANCH   7   8
ENDBRANCH   5   7
BRANCH   2  29
ATOM     29  O   UNL d   1       6.323  31.409  38.842  0.00  0.00    -0.346 OA
BRANCH  29  30
ATOM     30  C   UNL d   1       5.972  31.091  39.723  0.00  0.00     0.292 A 
ATOM     31  O   UNL d   1       4.985  31.041  39.879  0.00  0.00    -0.351 OA
ATOM     32  C   UNL d   1       4.634  30.723  40.760  0.00  0.00     0.152 A 
ATOM     33  C   UNL d   1       5.269  30.456  41.485  0.00  0.00     0.178 A 
ATOM     34  C   UNL d   1       3.648  30.672  40.916  0.00  0.00     0.042 C 
ATOM     35  C   UNL d   1       6.256  30.507  41.329  0.00  0.00     0.183 A 
ATOM     36  C   UNL d   1       6.607  30.824  40.448  0.00  0.00     0.204 A 
BRANCH  33  37
ATOM     37  O   UNL d   1       4.918  30.139  42.366  0.00  0.00    -0.390 OA
ATOM     38  H   UNL d   1       4.943  29.536  42.510  0.00  0.00     0.210 HD
ENDBRANCH  33  37
BRANCH  35  39
ATOM     39  O   UNL d   1       6.891  30.240  42.053  0.00  0.00    -0.390 OA
ATOM     40  H   UNL d   1       7.418  29.946  41.911  0.00  0.00     0.210 HD
ENDBRANCH  35  39
BRANCH  36  41
ATOM     41  O   UNL d   1       7.593  30.875  40.292  0.00  0.00    -0.388 OA
ATOM     42  H   UNL d   1       7.955  30.392  40.434  0.00  0.00     0.210 HD
ENDBRANCH  36  41
ENDBRANCH  29  30
ENDBRANCH   2  29
BRANCH   6  43
ATOM     43  C   UNL d   1       4.015  31.213  35.581  0.00  0.00     0.198 C 
BRANCH  43  44
ATOM     44  O   UNL d   1       3.350  31.937  35.395  0.00  0.00    -0.398 OA
ATOM     45  H   UNL d   1       3.157  32.306  35.855  0.00  0.00     0.209 HD
ENDBRANCH  43  44
ENDBRANCH   6  43
BRANCH   3  46
ATOM     46  O   UNL d   1       6.139  29.682  37.849  0.00  0.00    -0.390 OA
ATOM     47  H   UNL d   1       5.866  29.295  38.249  0.00  0.00     0.210 HD
ENDBRANCH   3  46
BRANCH   4  48
ATOM     48  O   UNL d   1       4.985  29.585  36.219  0.00  0.00    -0.390 OA
ATOM     49  H   UNL d   1       5.320  29.485  35.707  0.00  0.00     0.210 HD
ENDBRANCH   4  48
TORSDOF 14
ENDMDL
MODEL 2
REMARK VINA RESULT:    -9.068      2.646      4.652
REMARK INTER + INTRA:          -4.424
REMARK INTER:                 -14.263
REMARK INTRA:                   9.839
REMARK UNBOUND:                 9.945
REMARK  14 active torsions:
REMARK  status: ('A' for Active; 'I' for Inactive)
REMARK    1  A    between atoms: C_15  and  O_1 
REMARK    2  A    between atoms: C_18  and  O_1 
REMARK    3  A    between atoms: C_16  and  O_4 
REMARK    4  A    between atoms: C_20  and  O_5 
REMARK    5  A    between atoms: O_5  and  C_27 
REMARK    6  A    between atoms: C_17  and  O_6 
REMARK    7  A    between atoms: C_19  and  O_7 
REMARK    8  A    between atoms: C_22  and  O_8 
REMARK    9  A    between atoms: C_23  and  O_9 
REMARK   10  A    between atoms: O_10  and  C_25 
REMARK   11  A    between atoms: O_12  and  C_31 
REMARK   12  A    between atoms: O_14  and  C_41 
REMARK   13  A    between atoms: C_21  and  C_25 
REMARK   14  A    between atoms: C_34  and  C_36 
ROOT
ATOM      1  O   UNL d   1       3.560  35.054  37.934  0.00  0.00    -0.348 OA
ATOM      2  C   UNL d   1       3.320  33.592  37.038  0.00  0.00     0.211 A 
ATOM      3  C   UNL d   1       2.530  33.371  37.610  0.00  0.00     0.183 A 
ATOM      4  C   UNL d   1       2.255  33.992  38.344  0.00  0.00     0.180 A 
ATOM      5  C   UNL d   1       3.835  34.433  37.200  0.00  0.00     0.298 A 
ATOM      6  C   UNL d   1       2.770  34.833  38.506  0.00  0.00     0.179 A 
ENDROOT
BRANCH   5   7
ATOM      7  O   UNL d   1       4.625  34.654  36.628  0.00  0.00    -0.318 OA
BRANCH   7   8
ATOM      8  C   UNL d   1       4.851  35.609  36.435  0.00  0.00     0.077 A 
ATOM      9  C   UNL d   1       5.607  36.088  36.968  0.00  0.00     0.075 A 
ATOM     10  C   UNL d   1       5.833  37.082  36.758  0.00  0.00     0.095 A 
ATOM     11  O   UNL d   1       6.560  37.536  37.275  0.00  0.00    -0.309 OA
ATOM     12  C   UNL d   1       5.335  37.585  36.051  0.00  0.00     0.081 A 
ATOM     13  C   UNL d   1       6.789  38.490  37.084  0.00  0.00     0.090 A 
ATOM     14  C   UNL d   1       6.291  38.992  36.377  0.00  0.00     0.094 A 
ATOM     15  C   UNL d   1       5.564  38.539  35.861  0.00  0.00     0.190 A 
ATOM     16  O   UNL d   1       5.066  39.041  35.154  0.00  0.00    -0.287 OA
ATOM     17  C   UNL d   1       4.575  37.126  35.505  0.00  0.00     0.085 A 
ATOM     18  C   UNL d   1       4.332  36.132  35.698  0.00  0.00     0.074 A 
BRANCH  13  19
ATOM     19  C   UNL d   1       7.516  38.943  37.600  0.00  0.00    -0.002 A 
ATOM     20  C   UNL d   1       8.474  38.776  37.368  0.00  0.00     0.017 A 
ATOM     21  C   UNL d   1       9.200  39.229  37.884  0.00  0.00     0.037 A 
ATOM     22  C   UNL d   1       8.969  39.850  38.633  0.00  0.00     0.065 A 
ATOM     23  C   UNL d   1       8.011  40.018  38.865  0.00  0.00     0.037 A 
ATOM     24  C   UNL d   1       7.284  39.564  38.349  0.00  0.00     0.017 A 
BRANCH  22  25
ATOM     25  O   UNL d   1       9.696  40.303  39.149  0.00  0.00    -0.361 OA
ATOM     26  H   UNL d   1      10.285  40.254  38.962  0.00  0.00     0.217 HD
ENDBRANCH  22  25
ENDBRANCH  13  19
BRANCH  17  27
ATOM     27  O   UNL d   1       4.084  37.638  34.800  0.00  0.00    -0.360 OA
ATOM     28  H   UNL d   1       4.336  38.149  34.556  0.00  0.00     0.217 HD
ENDBRANCH  17  27
ENDBRANCH   7   8
ENDBRANCH   5   7
BRANCH   2  29
ATOM     29  O   UNL d   1       3.595  32.971  36.304  0.00  0.00    -0.346 OA
BRANCH  29  30
ATOM     30  C   UNL d   1       4.136  32.157  36.514  0.00  0.00     0.292 A 
ATOM     31  O   UNL d   1       4.712  32.137  37.331  0.00  0.00    -0.351 OA
ATOM     32  C   UNL d   1       5.253  31.322  37.541  0.00  0.00     0.152 A 
ATOM     33  C   UNL d   1       5.219  30.529  36.934  0.00  0.00     0.178 A 
ATOM     34  C   UNL d   1       5.829  31.302  38.359  0.00  0.00     0.042 C 
ATOM     35  C   UNL d   1       4.643  30.549  36.117  0.00  0.00     0.183 A 
ATOM     36  C   UNL d   1       4.102  31.363  35.907  0.00  0.00     0.204 A 
BRANCH  33  37
ATOM     37  O   UNL d   1       5.760  29.715  37.144  0.00  0.00    -0.390 OA
ATOM     38  H   UNL d   1       6.234  29.752  37.542  0.00  0.00     0.210 HD
ENDBRANCH  33  37
BRANCH  35  39
ATOM     39  O   UNL d   1       4.608  29.755  35.510  0.00  0.00    -0.390 OA
ATOM     40  H   UNL d   1       4.373  29.812  34.939  0.00  0.00     0.210 HD
ENDBRANCH  35  39
BRANCH  36  41
ATOM     41  O   UNL d   1       3.526  31.383  35.089  0.00  0.00    -0.388 OA
ATOM     42  H   UNL d   1       3.486  30.883  34.726  0.00  0.00     0.210 HD
ENDBRANCH  36  41
ENDBRANCH  29  30
ENDBRANCH   2  29
BRANCH   6  43
ATOM     43  C   UNL d   1       2.495  35.454  39.240  0.00  0.00     0.198 C 
BRANCH  43  44
ATOM     44  O   UNL d   1       3.188  35.877  39.823  0.00  0.00    -0.398 OA
ATOM     45  H   UNL d   1       3.707  35.568  39.963  0.00  0.00     0.209 HD
ENDBRANCH  43  44
ENDBRANCH   6  43
BRANCH   3  46
ATOM     46  O   UNL d   1       2.015  32.529  37.447  0.00  0.00    -0.390 OA
ATOM     47  H   UNL d   1       1.395  32.536  37.467  0.00  0.00     0.210 HD
ENDBRANCH   3  46
BRANCH   4  48
ATOM     48  O   UNL d   1       1.465  33.771  38.916  0.00  0.00    -0.390 OA
ATOM     49  H   UNL d   1       1.230  34.198  39.298  0.00  0.00     0.210 HD
ENDBRANCH   4  48
TORSDOF 14
ENDMDL
MODEL 3
REMARK VINA RESULT:    -8.919     12.419     15.108
REMARK INTER + INTRA:          -4.189
REMARK INTER:                 -14.296
REMARK INTRA:                  10.107
REMARK UNBOUND:                 9.945
REMARK  14 active torsions:
REMARK  status: ('A' for Active; 'I' for Inactive)
REMARK    1  A    between atoms: C_15  and  O_1 
REMARK    2  A    between atoms: C_18  and  O_1 
REMARK    3  A    between atoms: C_16  and  O_4 
REMARK    4  A    between atoms: C_20  and  O_5 
REMARK    5  A    between atoms: O_5  and  C_27 
REMARK    6  A    between atoms: C_17  and  O_6 
REMARK    7  A    between atoms: C_19  and  O_7 
REMARK    8  A    between atoms: C_22  and  O_8 
REMARK    9  A    between atoms: C_23  and  O_9 
REMARK   10  A    between atoms: O_10  and  C_25 
REMARK   11  A    between atoms: O_12  and  C_31 
REMARK   12  A    between atoms: O_14  and  C_41 
REMARK   13  A    between atoms: C_21  and  C_25 
REMARK   14  A    between atoms: C_34  and  C_36 
ROOT
ATOM      1  O   UNL d   1      14.622  40.156  29.501  0.00  0.00    -0.348 OA
ATOM      2  C   UNL d   1      13.546  38.802  29.407  0.00  0.00     0.211 A 
ATOM      3  C   UNL d   1      13.003  39.281  28.717  0.00  0.00     0.183 A 
ATOM      4  C   UNL d   1      13.269  40.198  28.419  0.00  0.00     0.180 A 
ATOM      5  C   UNL d   1      14.355  39.240  29.799  0.00  0.00     0.298 A 
ATOM      6  C   UNL d   1      14.079  40.635  28.811  0.00  0.00     0.179 A 
ENDROOT
BRANCH   5   7
ATOM      7  O   UNL d   1      14.898  38.760  30.488  0.00  0.00    -0.318 OA
BRANCH   7   8
ATOM      8  C   UNL d   1      15.767  39.147  30.798  0.00  0.00     0.077 A 
ATOM      9  C   UNL d   1      15.857  39.529  31.763  0.00  0.00     0.075 A 
ATOM     10  C   UNL d   1      16.766  39.929  32.075  0.00  0.00     0.095 A 
ATOM     11  O   UNL d   1      16.844  40.295  33.003  0.00  0.00    -0.309 OA
ATOM     12  C   UNL d   1      17.555  39.952  31.461  0.00  0.00     0.081 A 
ATOM     13  C   UNL d   1      17.712  40.682  33.316  0.00  0.00     0.090 A 
ATOM     14  C   UNL d   1      18.500  40.704  32.702  0.00  0.00     0.094 A 
ATOM     15  C   UNL d   1      18.422  40.339  31.774  0.00  0.00     0.190 A 
ATOM     16  O   UNL d   1      19.211  40.361  31.160  0.00  0.00    -0.287 OA
ATOM     17  C   UNL d   1      17.488  39.575  30.492  0.00  0.00     0.085 A 
ATOM     18  C   UNL d   1      16.589  39.170  30.158  0.00  0.00     0.074 A 
BRANCH  13  19
ATOM     19  C   UNL d   1      17.790  41.047  34.244  0.00  0.00    -0.002 A 
ATOM     20  C   UNL d   1      17.427  41.954  34.457  0.00  0.00     0.017 A 
ATOM     21  C   UNL d   1      17.506  42.319  35.384  0.00  0.00     0.037 A 
ATOM     22  C   UNL d   1      17.948  41.777  36.099  0.00  0.00     0.065 A 
ATOM     23  C   UNL d   1      18.311  40.870  35.886  0.00  0.00     0.037 A 
ATOM     24  C   UNL d   1      18.232  40.505  34.958  0.00  0.00     0.017 A 
BRANCH  22  25
ATOM     25  O   UNL d   1      18.027  42.142  37.027  0.00  0.00    -0.361 OA
ATOM     26  H   UNL d   1      18.424  41.886  37.428  0.00  0.00     0.217 HD
ENDBRANCH  22  25
ENDBRANCH  13  19
BRANCH  17  27
ATOM     27  O   UNL d   1      18.284  39.602  29.886  0.00  0.00    -0.360 OA
ATOM     28  H   UNL d   1      18.236  39.860  29.324  0.00  0.00     0.217 HD
ENDBRANCH  17  27
ENDBRANCH   7   8
ENDBRANCH   5   7
BRANCH   2  29
ATOM     29  O   UNL d   1      13.279  37.886  29.705  0.00  0.00    -0.346 OA
BRANCH  29  30
ATOM     30  C   UNL d   1      13.724  37.082  29.310  0.00  0.00     0.292 A 
ATOM     31  O   UNL d   1      14.088  37.119  28.379  0.00  0.00    -0.351 OA
ATOM     32  C   UNL d   1      14.533  36.316  27.984  0.00  0.00     0.152 A 
ATOM     33  C   UNL d   1      14.615  35.475  28.520  0.00  0.00     0.178 A 
ATOM     34  C   UNL d   1      14.897  36.352  27.053  0.00  0.00     0.042 C 
ATOM     35  C   UNL d   1      14.251  35.438  29.451  0.00  0.00     0.183 A 
ATOM     36  C   UNL d   1      13.806  36.242  29.846  0.00  0.00     0.204 A 
BRANCH  33  37
ATOM     37  O   UNL d   1      15.060  34.672  28.125  0.00  0.00    -0.390 OA
ATOM     38  H   UNL d   1      15.286  34.695  27.548  0.00  0.00     0.210 HD
ENDBRANCH  33  37
BRANCH  35  39
ATOM     39  O   UNL d   1      14.333  34.598  29.987  0.00  0.00    -0.390 OA
ATOM     40  H   UNL d   1      14.862  34.470  30.284  0.00  0.00     0.210 HD
ENDBRANCH  35  39
BRANCH  36  41
ATOM     41  O   UNL d   1      13.442  36.205  30.777  0.00  0.00    -0.388 OA
ATOM     42  H   UNL d   1      13.702  36.546  31.225  0.00  0.00     0.210 HD
ENDBRANCH  36  41
ENDBRANCH  29  30
ENDBRANCH   2  29
BRANCH   6  43
ATOM     43  C   UNL d   1      14.346  41.552  28.513  0.00  0.00     0.198 C 
BRANCH  43  44
ATOM     44  O   UNL d   1      14.810  42.169  29.148  0.00  0.00    -0.398 OA
ATOM     45  H   UNL d   1      15.004  42.725  28.955  0.00  0.00     0.209 HD
ENDBRANCH  43  44
ENDBRANCH   6  43
BRANCH   3  46
ATOM     46  O   UNL d   1      12.193  38.844  28.326  0.00  0.00    -0.390 OA
ATOM     47  H   UNL d   1      11.632  39.091  28.418  0.00  0.00     0.210 HD
ENDBRANCH   3  46
BRANCH   4  48
ATOM     48  O   UNL d   1      12.727  40.677  27.730  0.00  0.00    -0.390 OA
ATOM     49  H   UNL d   1      12.250  41.033  27.903  0.00  0.00     0.210 HD
ENDBRANCH   4  48
TORSDOF 14
ENDMDL
MODEL 4
REMARK VINA RESULT:    -8.802      3.062      7.816
REMARK INTER + INTRA:          -4.003
REMARK INTER:                 -13.880
REMARK INTRA:                   9.877
REMARK UNBOUND:                 9.945
REMARK  14 active torsions:
REMARK  status: ('A' for Active; 'I' for Inactive)
REMARK    1  A    between atoms: C_15  and  O_1 
REMARK    2  A    between atoms: C_18  and  O_1 
REMARK    3  A    between atoms: C_16  and  O_4 
REMARK    4  A    between atoms: C_20  and  O_5 
REMARK    5  A    between atoms: O_5  and  C_27 
REMARK    6  A    between atoms: C_17  and  O_6 
REMARK    7  A    between atoms: C_19  and  O_7 
REMARK    8  A    between atoms: C_22  and  O_8 
REMARK    9  A    between atoms: C_23  and  O_9 
REMARK   10  A    between atoms: O_10  and  C_25 
REMARK   11  A    between atoms: O_12  and  C_31 
REMARK   12  A    between atoms: O_14  and  C_41 
REMARK   13  A    between atoms: C_21  and  C_25 
REMARK   14  A    between atoms: C_34  and  C_36 
ROOT
ATOM      1  O   UNL d   1       5.405  32.043  40.217  0.00  0.00    -0.348 OA
ATOM      2  C   UNL d   1       5.991  31.568  38.657  0.00  0.00     0.211 A 
ATOM      3  C   UNL d   1       6.638  32.331  38.668  0.00  0.00     0.183 A 
ATOM      4  C   UNL d   1       6.669  32.949  39.454  0.00  0.00     0.180 A 
ATOM      5  C   UNL d   1       5.375  31.424  39.432  0.00  0.00     0.298 A 
ATOM      6  C   UNL d   1       6.052  32.805  40.228  0.00  0.00     0.179 A 
ENDROOT
BRANCH   5   7
ATOM      7  O   UNL d   1       4.727  30.662  39.421  0.00  0.00    -0.318 OA
BRANCH   7   8
ATOM      8  C   UNL d   1       4.427  30.249  40.280  0.00  0.00     0.077 A 
ATOM      9  C   UNL d   1       3.531  30.547  40.721  0.00  0.00     0.075 A 
ATOM     10  C   UNL d   1       3.229  30.110  41.616  0.00  0.00     0.095 A 
ATOM     11  O   UNL d   1       2.368  30.401  42.034  0.00  0.00    -0.309 OA
ATOM     12  C   UNL d   1       3.786  29.407  42.059  0.00  0.00     0.081 A 
ATOM     13  C   UNL d   1       2.064  29.990  42.893  0.00  0.00     0.090 A 
ATOM     14  C   UNL d   1       2.621  29.287  43.335  0.00  0.00     0.094 A 
ATOM     15  C   UNL d   1       3.482  28.996  42.919  0.00  0.00     0.190 A 
ATOM     16  O   UNL d   1       4.039  28.293  43.361  0.00  0.00    -0.287 OA
ATOM     17  C   UNL d   1       4.685  29.093  41.636  0.00  0.00     0.085 A 
ATOM     18  C   UNL d   1       5.007  29.517  40.742  0.00  0.00     0.074 A 
BRANCH  13  19
ATOM     19  C   UNL d   1       1.203  30.281  43.311  0.00  0.00    -0.002 A 
ATOM     20  C   UNL d   1       0.354  30.247  42.783  0.00  0.00     0.017 A 
ATOM     21  C   UNL d   1      -0.506  30.539  43.201  0.00  0.00     0.037 A 
ATOM     22  C   UNL d   1      -0.518  30.864  44.146  0.00  0.00     0.065 A 
ATOM     23  C   UNL d   1       0.330  30.897  44.674  0.00  0.00     0.037 A 
ATOM     24  C   UNL d   1       1.191  30.606  44.256  0.00  0.00     0.017 A 
BRANCH  22  25
ATOM     25  O   UNL d   1      -1.379  31.155  44.563  0.00  0.00    -0.361 OA
ATOM     26  H   UNL d   1      -1.409  31.255  45.175  0.00  0.00     0.217 HD
ENDBRANCH  22  25
ENDBRANCH  13  19
BRANCH  17  27
ATOM     27  O   UNL d   1       5.234  28.390  42.088  0.00  0.00    -0.360 OA
ATOM     28  H   UNL d   1       5.627  28.043  41.756  0.00  0.00     0.217 HD
ENDBRANCH  17  27
ENDBRANCH   7   8
ENDBRANCH   5   7
BRANCH   2  29
ATOM     29  O   UNL d   1       5.960  30.950  37.872  0.00  0.00    -0.346 OA
BRANCH  29  30
ATOM     30  C   UNL d   1       5.302  31.108  37.137  0.00  0.00     0.292 A 
ATOM     31  O   UNL d   1       4.909  32.018  37.004  0.00  0.00    -0.351 OA
ATOM     32  C   UNL d   1       4.250  32.177  36.269  0.00  0.00     0.152 A 
ATOM     33  C   UNL d   1       3.984  31.425  35.666  0.00  0.00     0.178 A 
ATOM     34  C   UNL d   1       3.858  33.087  36.136  0.00  0.00     0.042 C 
ATOM     35  C   UNL d   1       4.377  30.514  35.798  0.00  0.00     0.183 A 
ATOM     36  C   UNL d   1       5.035  30.356  36.534  0.00  0.00     0.204 A 
BRANCH  33  37
ATOM     37  O   UNL d   1       3.325  31.583  34.930  0.00  0.00    -0.390 OA
ATOM     38  H   UNL d   1       3.440  31.368  34.360  0.00  0.00     0.210 HD
ENDBRANCH  33  37
BRANCH  35  39
ATOM     39  O   UNL d   1       4.110  29.763  35.195  0.00  0.00    -0.390 OA
ATOM     40  H   UNL d   1       4.524  29.327  35.041  0.00  0.00     0.210 HD
ENDBRANCH  35  39
BRANCH  36  41
ATOM     41  O   UNL d   1       5.428  29.446  36.666  0.00  0.00    -0.388 OA
ATOM     42  H   UNL d   1       6.036  29.356  36.587  0.00  0.00     0.210 HD
ENDBRANCH  36  41
ENDBRANCH  29  30
ENDBRANCH   2  29
BRANCH   6  43
ATOM     43  C   UNL d   1       6.083  33.423  41.013  0.00  0.00     0.198 C 
BRANCH  43  44
ATOM     44  O   UNL d   1       5.235  33.800  41.387  0.00  0.00    -0.398 OA
ATOM     45  H   UNL d   1       5.239  34.086  41.937  0.00  0.00     0.209 HD
ENDBRANCH  43  44
ENDBRANCH   6  43
BRANCH   3  46
ATOM     46  O   UNL d   1       7.255  32.474  37.894  0.00  0.00    -0.390 OA
ATOM     47  H   UNL d   1       7.851  32.610  37.994  0.00  0.00     0.210 HD
ENDBRANCH   3  46
BRANCH   4  48
ATOM     48  O   UNL d   1       7.316  33.711  39.465  0.00  0.00    -0.390 OA
ATOM     49  H   UNL d   1       7.379  34.057  39.976  0.00  0.00     0.210 HD
ENDBRANCH   4  48
TORSDOF 14
ENDMDL
MODEL 5
REMARK VINA RESULT:    -8.734      1.650      3.253
REMARK INTER + INTRA:          -3.894
REMARK INTER:                 -13.612
REMARK INTRA:                   9.717
REMARK UNBOUND:                 9.945
REMARK  14 active torsions:
REMARK  status: ('A' for Active; 'I' for Inactive)
REMARK    1  A    between atoms: C_15  and  O_1 
REMARK    2  A    between atoms: C_18  and  O_1 
REMARK    3  A    between atoms: C_16  and  O_4 
REMARK    4  A    between atoms: C_20  and  O_5 
REMARK    5  A    between atoms: O_5  and  C_27 
REMARK    6  A    between atoms: C_17  and  O_6 
REMARK    7  A    between atoms: C_19  and  O_7 
REMARK    8  A    between atoms: C_22  and  O_8 
REMARK    9  A    between atoms: C_23  and  O_9 
REMARK   10  A    between atoms: O_10  and  C_25 
REMARK   11  A    between atoms: O_12  and  C_31 
REMARK   12  A    between atoms: O_14  and  C_41 
REMARK   13  A    between atoms: C_21  and  C_25 
REMARK   14  A    between atoms: C_34  and  C_36 
ROOT
ATOM      1  O   UNL d   1       4.752  32.174  36.936  0.00  0.00    -0.348 OA
ATOM      2  C   UNL d   1       5.778  31.315  38.036  0.00  0.00     0.211 A 
ATOM      3  C   UNL d   1       5.643  30.477  37.506  0.00  0.00     0.183 A 
ATOM      4  C   UNL d   1       5.063  30.488  36.692  0.00  0.00     0.180 A 
ATOM      5  C   UNL d   1       5.332  32.163  37.751  0.00  0.00     0.298 A 
ATOM      6  C   UNL d   1       4.617  31.337  36.407  0.00  0.00     0.179 A 
ENDROOT
BRANCH   5   7
ATOM      7  O   UNL d   1       5.466  33.001  38.280  0.00  0.00    -0.318 OA
BRANCH   7   8
ATOM      8  C   UNL d   1       5.009  33.846  38.004  0.00  0.00     0.077 A 
ATOM      9  C   UNL d   1       4.052  34.063  38.354  0.00  0.00     0.075 A 
ATOM     10  C   UNL d   1       3.584  34.946  38.060  0.00  0.00     0.095 A 
ATOM     11  O   UNL d   1       2.666  35.148  38.401  0.00  0.00    -0.309 OA
ATOM     12  C   UNL d   1       4.041  35.589  37.445  0.00  0.00     0.081 A 
ATOM     13  C   UNL d   1       2.205  35.992  38.127  0.00  0.00     0.090 A 
ATOM     14  C   UNL d   1       2.662  36.634  37.512  0.00  0.00     0.094 A 
ATOM     15  C   UNL d   1       3.580  36.433  37.171  0.00  0.00     0.190 A 
ATOM     16  O   UNL d   1       4.038  37.076  36.557  0.00  0.00    -0.287 OA
ATOM     17  C   UNL d   1       4.998  35.393  37.083  0.00  0.00     0.085 A 
ATOM     18  C   UNL d   1       5.485  34.516  37.363  0.00  0.00     0.074 A 
BRANCH  13  19
ATOM     19  C   UNL d   1       1.286  36.193  38.467  0.00  0.00    -0.002 A 
ATOM     20  C   UNL d   1       1.168  36.746  39.292  0.00  0.00     0.017 A 
ATOM     21  C   UNL d   1       0.250  36.947  39.632  0.00  0.00     0.037 A 
ATOM     22  C   UNL d   1      -0.551  36.596  39.147  0.00  0.00     0.065 A 
ATOM     23  C   UNL d   1      -0.433  36.043  38.322  0.00  0.00     0.037 A 
ATOM     24  C   UNL d   1       0.485  35.841  37.982  0.00  0.00     0.017 A 
BRANCH  22  25
ATOM     25  O   UNL d   1      -1.470  36.797  39.488  0.00  0.00    -0.361 OA
ATOM     26  H   UNL d   1      -1.739  37.339  39.351  0.00  0.00     0.217 HD
ENDBRANCH  22  25
ENDBRANCH  13  19
BRANCH  17  27
ATOM     27  O   UNL d   1       5.446  36.043  36.468  0.00  0.00    -0.360 OA
ATOM     28  H   UNL d   1       5.143  36.551  36.280  0.00  0.00     0.217 HD
ENDBRANCH  17  27
ENDBRANCH   7   8
ENDBRANCH   5   7
BRANCH   2  29
ATOM     29  O   UNL d   1       6.358  31.304  38.850  0.00  0.00    -0.346 OA
BRANCH  29  30
ATOM     30  C   UNL d   1       5.977  31.026  39.732  0.00  0.00     0.292 A 
ATOM     31  O   UNL d   1       4.986  30.972  39.853  0.00  0.00    -0.351 OA
ATOM     32  C   UNL d   1       4.604  30.695  40.735  0.00  0.00     0.152 A 
ATOM     33  C   UNL d   1       5.214  30.472  41.495  0.00  0.00     0.178 A 
ATOM     34  C   UNL d   1       3.613  30.640  40.856  0.00  0.00     0.042 C 
ATOM     35  C   UNL d   1       6.205  30.526  41.374  0.00  0.00     0.183 A 
ATOM     36  C   UNL d   1       6.587  30.804  40.492  0.00  0.00     0.204 A 
BRANCH  33  37
ATOM     37  O   UNL d   1       4.833  30.194  42.377  0.00  0.00    -0.390 OA
ATOM     38  H   UNL d   1       4.274  29.926  42.403  0.00  0.00     0.210 HD
ENDBRANCH  33  37
BRANCH  35  39
ATOM     39  O   UNL d   1       6.815  30.303  42.134  0.00  0.00    -0.390 OA
ATOM     40  H   UNL d   1       6.987  30.745  42.534  0.00  0.00     0.210 HD
ENDBRANCH  35  39
BRANCH  36  41
ATOM     41  O   UNL d   1       7.578  30.858  40.371  0.00  0.00    -0.388 OA
ATOM     42  H   UNL d   1       7.814  31.146  39.875  0.00  0.00     0.210 HD
ENDBRANCH  36  41
ENDBRANCH  29  30
ENDBRANCH   2  29
BRANCH   6  43
ATOM     43  C   UNL d   1       4.037  31.348  35.593  0.00  0.00     0.198 C 
BRANCH  43  44
ATOM     44  O   UNL d   1       3.397  32.102  35.445  0.00  0.00    -0.398 OA
ATOM     45  H   UNL d   1       2.794  32.026  35.572  0.00  0.00     0.209 HD
ENDBRANCH  43  44
ENDBRANCH   6  43
BRANCH   3  46
ATOM     46  O   UNL d   1       6.089  29.629  37.791  0.00  0.00    -0.390 OA
ATOM     47  H   UNL d   1       6.061  29.127  37.428  0.00  0.00     0.210 HD
ENDBRANCH   3  46
BRANCH   4  48
ATOM     48  O   UNL d   1       4.928  29.651  36.162  0.00  0.00    -0.390 OA
ATOM     49  H   UNL d   1       5.353  29.199  36.183  0.00  0.00     0.210 HD
ENDBRANCH   4  48
TORSDOF 14
ENDMDL
