MODEL 1
REMARK VINA RESULT:    -8.330      0.000      0.000
REMARK INTER + INTRA:          -8.295
REMARK INTER:                  -9.299
REMARK INTRA:                   1.004
REMARK UNBOUND:                 1.009
REMARK  3 active torsions:
REMARK  status: ('A' for Active; 'I' for Inactive)
REMARK    1  A    between atoms: O_2  and  C_10 
REMARK    2  A    between atoms: O_4  and  C_13 
REMARK    3  A    between atoms: C_7  and  C_9 
ROOT
ATOM      1  O   UNL d   1      -2.078  17.918  -7.674  0.00  0.00    -0.309 OA
ATOM      2  O   UNL d   1      -3.412  16.695 -10.066  0.00  0.00    -0.287 OA
ATOM      3  C   UNL d   1      -2.005  16.908  -9.079  0.00  0.00     0.081 A 
ATOM      4  C   UNL d   1      -1.560  17.316  -8.281  0.00  0.00     0.095 A 
ATOM      5  C   UNL d   1      -3.040  18.113  -7.864  0.00  0.00     0.090 A 
ATOM      6  C   UNL d   1      -2.967  17.103  -9.269  0.00  0.00     0.190 A 
ATOM      7  C   UNL d   1      -1.478  16.279  -9.720  0.00  0.00     0.085 A 
ATOM      8  C   UNL d   1      -3.485  17.705  -8.661  0.00  0.00     0.094 A 
ATOM      9  C   UNL d   1      -0.558  17.123  -8.070  0.00  0.00     0.075 A 
ATOM     10  C   UNL d   1      -0.013  16.496  -8.699  0.00  0.00     0.071 A 
ATOM     11  C   UNL d   1      -0.476  16.072  -9.529  0.00  0.00     0.074 A 
ENDROOT
BRANCH   5  12
ATOM     12  C   UNL d   1      -3.558  18.715  -7.256  0.00  0.00    -0.002 A 
ATOM     13  C   UNL d   1      -3.508  19.707  -7.374  0.00  0.00     0.014 A 
ATOM     14  C   UNL d   1      -4.026  20.309  -6.766  0.00  0.00     0.001 A 
ATOM     15  C   UNL d   1      -4.593  19.920  -6.041  0.00  0.00     0.000 A 
ATOM     16  C   UNL d   1      -4.643  18.928  -5.923  0.00  0.00     0.001 A 
ATOM     17  C   UNL d   1      -4.125  18.326  -6.530  0.00  0.00     0.014 A 
ENDBRANCH   5  12
BRANCH   7  18
ATOM     18  O   UNL d   1      -1.933  15.877 -10.515  0.00  0.00    -0.360 OA
ATOM     19  H   UNL d   1      -1.602  15.716 -11.013  0.00  0.00     0.217 HD
ENDBRANCH   7  18
BRANCH  10  20
ATOM     20  O   UNL d   1       0.950  16.304  -8.506  0.00  0.00    -0.361 OA
ATOM     21  H   UNL d   1       1.257  15.888  -8.847  0.00  0.00     0.217 HD
ENDBRANCH  10  20
TORSDOF 3
ENDMDL
MODEL 2
REMARK VINA RESULT:    -8.207     25.814     27.191
REMARK INTER + INTRA:          -8.158
REMARK INTER:                  -9.224
REMARK INTRA:                   1.066
REMARK UNBOUND:                 1.009
REMARK  3 active torsions:
REMARK  status: ('A' for Active; 'I' for Inactive)
REMARK    1  A    between atoms: O_2  and  C_10 
REMARK    2  A    between atoms: O_4  and  C_13 
REMARK    3  A    between atoms: C_7  and  C_9 
ROOT
ATOM      1  O   UNL d   1     -17.571   9.166 -27.882  0.00  0.00    -0.309 OA
ATOM      2  O   UNL d   1     -19.306   8.361 -30.194  0.00  0.00    -0.287 OA
ATOM      3  C   UNL d   1     -18.563   9.597 -29.235  0.00  0.00     0.081 A 
ATOM      4  C   UNL d   1     -17.984   9.865 -28.465  0.00  0.00     0.095 A 
ATOM      5  C   UNL d   1     -17.736   8.197 -28.070  0.00  0.00     0.090 A 
ATOM      6  C   UNL d   1     -18.728   8.629 -29.423  0.00  0.00     0.190 A 
ATOM      7  C   UNL d   1     -18.999  10.315 -29.851  0.00  0.00     0.085 A 
ATOM      8  C   UNL d   1     -18.315   7.929 -28.841  0.00  0.00     0.094 A 
ATOM      9  C   UNL d   1     -17.803  10.870 -28.257  0.00  0.00     0.075 A 
ATOM     10  C   UNL d   1     -18.230  11.605 -28.859  0.00  0.00     0.071 A 
ATOM     11  C   UNL d   1     -18.832  11.325 -29.661  0.00  0.00     0.074 A 
ENDROOT
BRANCH   5  12
ATOM     12  C   UNL d   1     -17.323   7.497 -27.488  0.00  0.00    -0.002 A 
ATOM     13  C   UNL d   1     -17.606   7.412 -26.532  0.00  0.00     0.014 A 
ATOM     14  C   UNL d   1     -17.193   6.712 -25.950  0.00  0.00     0.001 A 
ATOM     15  C   UNL d   1     -16.497   6.098 -26.322  0.00  0.00     0.000 A 
ATOM     16  C   UNL d   1     -16.215   6.183 -27.278  0.00  0.00     0.001 A 
ATOM     17  C   UNL d   1     -16.628   6.883 -27.860  0.00  0.00     0.014 A 
ENDBRANCH   5  12
BRANCH   7  18
ATOM     18  O   UNL d   1     -19.576  10.035 -30.618  0.00  0.00    -0.360 OA
ATOM     19  H   UNL d   1     -19.760  10.454 -31.036  0.00  0.00     0.217 HD
ENDBRANCH   7  18
BRANCH  10  20
ATOM     20  O   UNL d   1     -18.062  12.572 -28.668  0.00  0.00    -0.361 OA
ATOM     21  H   UNL d   1     -17.545  12.744 -28.372  0.00  0.00     0.217 HD
ENDBRANCH  10  20
TORSDOF 3
ENDMDL
MODEL 3
REMARK VINA RESULT:    -7.800     24.697     26.236
REMARK INTER + INTRA:          -7.703
REMARK INTER:                  -8.709
REMARK INTRA:                   1.006
REMARK UNBOUND:                 1.009
REMARK  3 active torsions:
REMARK  status: ('A' for Active; 'I' for Inactive)
REMARK    1  A    between atoms: O_2  and  C_10 
REMARK    2  A    between atoms: O_4  and  C_13 
REMARK    3  A    between atoms: C_7  and  C_9 
ROOT
ATOM      1  O   UNL d   1     -16.474   6.679 -27.797  0.00  0.00    -0.309 OA
ATOM      2  O   UNL d   1     -17.103   7.038 -24.886  0.00  0.00    -0.287 OA
ATOM      3  C   UNL d   1     -16.109   6.364 -26.133  0.00  0.00     0.081 A 
ATOM      4  C   UNL d   1     -15.899   6.244 -27.104  0.00  0.00     0.095 A 
ATOM      5  C   UNL d   1     -17.259   7.233 -27.520  0.00  0.00     0.090 A 
ATOM      6  C   UNL d   1     -16.893   6.918 -25.856  0.00  0.00     0.190 A 
ATOM      7  C   UNL d   1     -15.519   5.917 -25.401  0.00  0.00     0.085 A 
ATOM      8  C   UNL d   1     -17.468   7.353 -26.549  0.00  0.00     0.094 A 
ATOM      9  C   UNL d   1     -15.085   5.669 -27.408  0.00  0.00     0.075 A 
ATOM     10  C   UNL d   1     -14.482   5.214 -26.692  0.00  0.00     0.071 A 
ATOM     11  C   UNL d   1     -14.700   5.338 -25.682  0.00  0.00     0.074 A 
ENDROOT
BRANCH   5  12
ATOM     12  C   UNL d   1     -17.834   7.668 -28.213  0.00  0.00    -0.002 A 
ATOM     13  C   UNL d   1     -18.555   7.143 -28.664  0.00  0.00     0.014 A 
ATOM     14  C   UNL d   1     -19.130   7.578 -29.357  0.00  0.00     0.001 A 
ATOM     15  C   UNL d   1     -18.983   8.537 -29.599  0.00  0.00     0.000 A 
ATOM     16  C   UNL d   1     -18.262   9.062 -29.147  0.00  0.00     0.001 A 
ATOM     17  C   UNL d   1     -17.687   8.627 -28.454  0.00  0.00     0.014 A 
ENDBRANCH   5  12
BRANCH   7  18
ATOM     18  O   UNL d   1     -15.738   6.043 -24.433  0.00  0.00    -0.360 OA
ATOM     19  H   UNL d   1     -15.600   5.599 -24.024  0.00  0.00     0.217 HD
ENDBRANCH   7  18
BRANCH  10  20
ATOM     20  O   UNL d   1     -13.698   4.660 -26.974  0.00  0.00    -0.361 OA
ATOM     21  H   UNL d   1     -13.788   4.096 -27.216  0.00  0.00     0.217 HD
ENDBRANCH  10  20
TORSDOF 3
ENDMDL
MODEL 4
REMARK VINA RESULT:    -7.718     25.418     27.057
REMARK INTER + INTRA:          -7.612
REMARK INTER:                  -8.692
REMARK INTRA:                   1.080
REMARK UNBOUND:                 1.009
REMARK  3 active torsions:
REMARK  status: ('A' for Active; 'I' for Inactive)
REMARK    1  A    between atoms: O_2  and  C_10 
REMARK    2  A    between atoms: O_4  and  C_13 
REMARK    3  A    between atoms: C_7  and  C_9 
ROOT
ATOM      1  O   UNL d   1     -17.039   7.309 -27.387  0.00  0.00    -0.309 OA
ATOM      2  O   UNL d   1     -18.600   5.054 -28.605  0.00  0.00    -0.287 OA
ATOM      3  C   UNL d   1     -18.245   6.746 -28.496  0.00  0.00     0.081 A 
ATOM      4  C   UNL d   1     -17.725   7.498 -28.090  0.00  0.00     0.095 A 
ATOM      5  C   UNL d   1     -16.874   6.368 -27.090  0.00  0.00     0.090 A 
ATOM      6  C   UNL d   1     -18.079   5.806 -28.199  0.00  0.00     0.190 A 
ATOM      7  C   UNL d   1     -18.962   6.928 -29.229  0.00  0.00     0.085 A 
ATOM      8  C   UNL d   1     -17.394   5.617 -27.496  0.00  0.00     0.094 A 
ATOM      9  C   UNL d   1     -17.885   8.483 -28.389  0.00  0.00     0.075 A 
ATOM     10  C   UNL d   1     -18.598   8.687 -29.121  0.00  0.00     0.071 A 
ATOM     11  C   UNL d   1     -19.139   7.905 -29.544  0.00  0.00     0.074 A 
ENDROOT
BRANCH   5  12
ATOM     12  C   UNL d   1     -16.188   6.179 -26.387  0.00  0.00    -0.002 A 
ATOM     13  C   UNL d   1     -15.388   5.620 -26.606  0.00  0.00     0.014 A 
ATOM     14  C   UNL d   1     -14.703   5.431 -25.903  0.00  0.00     0.001 A 
ATOM     15  C   UNL d   1     -14.817   5.801 -24.981  0.00  0.00     0.000 A 
ATOM     16  C   UNL d   1     -15.617   6.360 -24.762  0.00  0.00     0.001 A 
ATOM     17  C   UNL d   1     -16.303   6.549 -25.465  0.00  0.00     0.014 A 
ENDBRANCH   5  12
BRANCH   7  18
ATOM     18  O   UNL d   1     -19.476   6.169 -29.628  0.00  0.00    -0.360 OA
ATOM     19  H   UNL d   1     -19.711   5.728 -29.262  0.00  0.00     0.217 HD
ENDBRANCH   7  18
BRANCH  10  20
ATOM     20  O   UNL d   1     -18.760   9.629 -29.415  0.00  0.00    -0.361 OA
ATOM     21  H   UNL d   1     -19.046  10.027 -29.036  0.00  0.00     0.217 HD
ENDBRANCH  10  20
TORSDOF 3
ENDMDL
MODEL 5
REMARK VINA RESULT:    -7.669     24.399     25.342
REMARK INTER + INTRA:          -7.557
REMARK INTER:                  -8.630
REMARK INTRA:                   1.073
REMARK UNBOUND:                 1.009
REMARK  3 active torsions:
REMARK  status: ('A' for Active; 'I' for Inactive)
REMARK    1  A    between atoms: O_2  and  C_10 
REMARK    2  A    between atoms: O_4  and  C_13 
REMARK    3  A    between atoms: C_7  and  C_9 
ROOT
ATOM      1  O   UNL d   1     -15.890  -2.793  -8.687  0.00  0.00    -0.309 OA
ATOM      2  O   UNL d   1     -17.123  -5.497  -9.100  0.00  0.00    -0.287 OA
ATOM      3  C   UNL d   1     -16.754  -3.910  -9.689  0.00  0.00     0.081 A 
ATOM      4  C   UNL d   1     -16.343  -3.009  -9.551  0.00  0.00     0.095 A 
ATOM      5  C   UNL d   1     -15.847  -3.479  -7.960  0.00  0.00     0.090 A 
ATOM      6  C   UNL d   1     -16.712  -4.595  -8.962  0.00  0.00     0.190 A 
ATOM      7  C   UNL d   1     -17.230  -4.149 -10.584  0.00  0.00     0.085 A 
ATOM      8  C   UNL d   1     -16.258  -4.380  -8.098  0.00  0.00     0.094 A 
ATOM      9  C   UNL d   1     -16.379  -2.284 -10.299  0.00  0.00     0.075 A 
ATOM     10  C   UNL d   1     -16.850  -2.502 -11.202  0.00  0.00     0.071 A 
ATOM     11  C   UNL d   1     -17.278  -3.440 -11.346  0.00  0.00     0.074 A 
ENDROOT
BRANCH   5  12
ATOM     12  C   UNL d   1     -15.394  -3.263  -7.095  0.00  0.00    -0.002 A 
ATOM     13  C   UNL d   1     -14.410  -3.084  -7.077  0.00  0.00     0.014 A 
ATOM     14  C   UNL d   1     -13.957  -2.868  -6.213  0.00  0.00     0.001 A 
ATOM     15  C   UNL d   1     -14.487  -2.831  -5.366  0.00  0.00     0.000 A 
ATOM     16  C   UNL d   1     -15.470  -3.011  -5.383  0.00  0.00     0.001 A 
ATOM     17  C   UNL d   1     -15.924  -3.226  -6.248  0.00  0.00     0.014 A 
ENDBRANCH   5  12
BRANCH   7  18
ATOM     18  O   UNL d   1     -17.637  -5.053 -10.711  0.00  0.00    -0.360 OA
ATOM     19  H   UNL d   1     -17.416  -5.539 -10.397  0.00  0.00     0.217 HD
ENDBRANCH   7  18
BRANCH  10  20
ATOM     20  O   UNL d   1     -16.890  -1.813 -11.927  0.00  0.00    -0.361 OA
ATOM     21  H   UNL d   1     -16.701  -1.233 -11.814  0.00  0.00     0.217 HD
ENDBRANCH  10  20
TORSDOF 3
ENDMDL
