MODEL 1
REMARK VINA RESULT:    -8.217      0.000      0.000
REMARK INTER + INTRA:          -6.362
REMARK INTER:                  -9.833
REMARK INTRA:                   3.472
REMARK UNBOUND:                 3.537
REMARK  6 active torsions:
REMARK  status: ('A' for Active; 'I' for Inactive)
REMARK    1  A    between atoms: O_2  and  C_7 
REMARK    2  A    between atoms: O_3  and  C_13 
REMARK    3  A    between atoms: O_4  and  C_18 
REMARK    4  A    between atoms: O_5  and  C_19 
REMARK    5  A    between atoms: O_6  and  C_21 
REMARK    6  A    between atoms: C_8  and  C_12 
ROOT
ATOM      1  O   UNL d   1     -14.827  -3.769  -7.784  0.00  0.00    -0.338 OA
ATOM      2  C   UNL d   1     -16.299  -3.493  -6.914  0.00  0.00     0.156 A 
ATOM      3  C   UNL d   1     -15.826  -3.799  -7.740  0.00  0.00     0.191 A 
ATOM      4  C   UNL d   1     -15.774  -3.156  -6.132  0.00  0.00     0.079 A 
ATOM      5  C   UNL d   1     -14.776  -3.126  -6.176  0.00  0.00     0.011 A 
ATOM      6  C   UNL d   1     -14.302  -3.433  -7.002  0.00  0.00     0.081 A 
ATOM      7  C   UNL d   1     -14.242  -2.773  -5.355  0.00  0.00     0.077 A 
ATOM      8  C   UNL d   1     -13.263  -3.407  -7.063  0.00  0.00     0.074 A 
ATOM      9  C   UNL d   1     -13.202  -2.739  -5.394  0.00  0.00     0.073 A 
ATOM     10  C   UNL d   1     -12.709  -3.058  -6.253  0.00  0.00     0.071 A 
ENDROOT
BRANCH   3  11
ATOM     11  C   UNL d   1     -16.351  -4.136  -8.521  0.00  0.00    -0.024 A 
ATOM     12  C   UNL d   1     -16.723  -3.491  -9.189  0.00  0.00     0.049 A 
ATOM     13  C   UNL d   1     -17.248  -3.828  -9.970  0.00  0.00     0.099 A 
ATOM     14  C   UNL d   1     -17.401  -4.809 -10.084  0.00  0.00     0.098 A 
ATOM     15  C   UNL d   1     -17.029  -5.454  -9.417  0.00  0.00     0.040 A 
ATOM     16  C   UNL d   1     -16.504  -5.118  -8.635  0.00  0.00     0.013 A 
BRANCH  13  17
ATOM     17  O   UNL d   1     -17.620  -3.183 -10.638  0.00  0.00    -0.358 OA
ATOM     18  H   UNL d   1     -17.882  -2.655 -10.446  0.00  0.00     0.217 HD
ENDBRANCH  13  17
BRANCH  14  19
ATOM     19  O   UNL d   1     -17.927  -5.146 -10.866  0.00  0.00    -0.358 OA
ATOM     20  H   UNL d   1     -17.865  -4.876 -11.421  0.00  0.00     0.217 HD
ENDBRANCH  14  19
ENDBRANCH   3  11
BRANCH   2  21
ATOM     21  O   UNL d   1     -17.298  -3.523  -6.870  0.00  0.00    -0.392 OA
ATOM     22  H   UNL d   1     -17.609  -3.069  -6.585  0.00  0.00     0.210 HD
ENDBRANCH   2  21
BRANCH   7  23
ATOM     23  O   UNL d   1     -14.726  -2.469  -4.534  0.00  0.00    -0.360 OA
ATOM     24  H   UNL d   1     -15.127  -2.849  -4.253  0.00  0.00     0.217 HD
ENDBRANCH   7  23
BRANCH  10  25
ATOM     25  O   UNL d   1     -11.711  -3.029  -6.301  0.00  0.00    -0.361 OA
ATOM     26  H   UNL d   1     -11.420  -2.491  -6.400  0.00  0.00     0.217 HD
ENDBRANCH  10  25
TORSDOF 6
ENDMDL
MODEL 2
REMARK VINA RESULT:    -7.917      1.305      5.233
REMARK INTER + INTRA:          -6.000
REMARK INTER:                  -9.484
REMARK INTRA:                   3.484
REMARK UNBOUND:                 3.537
REMARK  6 active torsions:
REMARK  status: ('A' for Active; 'I' for Inactive)
REMARK    1  A    between atoms: O_2  and  C_7 
REMARK    2  A    between atoms: O_3  and  C_13 
REMARK    3  A    between atoms: O_4  and  C_18 
REMARK    4  A    between atoms: O_5  and  C_19 
REMARK    5  A    between atoms: O_6  and  C_21 
REMARK    6  A    between atoms: C_8  and  C_12 
ROOT
ATOM      1  O   UNL d   1     -15.832  -3.672  -8.891  0.00  0.00    -0.338 OA
ATOM      2  C   UNL d   1     -15.367  -2.038  -9.230  0.00  0.00     0.156 A 
ATOM      3  C   UNL d   1     -15.288  -2.863  -8.669  0.00  0.00     0.191 A 
ATOM      4  C   UNL d   1     -15.991  -2.023 -10.011  0.00  0.00     0.079 A 
ATOM      5  C   UNL d   1     -16.535  -2.832 -10.232  0.00  0.00     0.011 A 
ATOM      6  C   UNL d   1     -16.455  -3.657  -9.672  0.00  0.00     0.081 A 
ATOM      7  C   UNL d   1     -17.180  -2.802 -11.049  0.00  0.00     0.077 A 
ATOM      8  C   UNL d   1     -17.016  -4.508  -9.890  0.00  0.00     0.074 A 
ATOM      9  C   UNL d   1     -17.750  -3.641 -11.286  0.00  0.00     0.073 A 
ATOM     10  C   UNL d   1     -17.667  -4.499 -10.703  0.00  0.00     0.071 A 
ENDROOT
BRANCH   3  11
ATOM     11  C   UNL d   1     -14.664  -2.878  -7.888  0.00  0.00    -0.024 A 
ATOM     12  C   UNL d   1     -15.009  -2.684  -6.969  0.00  0.00     0.049 A 
ATOM     13  C   UNL d   1     -14.385  -2.699  -6.188  0.00  0.00     0.099 A 
ATOM     14  C   UNL d   1     -13.417  -2.908  -6.325  0.00  0.00     0.098 A 
ATOM     15  C   UNL d   1     -13.072  -3.102  -7.243  0.00  0.00     0.040 A 
ATOM     16  C   UNL d   1     -13.696  -3.087  -8.025  0.00  0.00     0.013 A 
BRANCH  13  17
ATOM     17  O   UNL d   1     -14.730  -2.506  -5.269  0.00  0.00    -0.358 OA
ATOM     18  H   UNL d   1     -14.836  -1.920  -5.095  0.00  0.00     0.217 HD
ENDBRANCH  13  17
BRANCH  14  19
ATOM     19  O   UNL d   1     -12.793  -2.923  -5.543  0.00  0.00    -0.358 OA
ATOM     20  H   UNL d   1     -12.506  -2.403  -5.365  0.00  0.00     0.217 HD
ENDBRANCH  14  19
ENDBRANCH   3  11
BRANCH   2  21
ATOM     21  O   UNL d   1     -14.823  -1.229  -9.008  0.00  0.00    -0.392 OA
ATOM     22  H   UNL d   1     -14.409  -1.012  -9.416  0.00  0.00     0.210 HD
ENDBRANCH   2  21
BRANCH   7  23
ATOM     23  O   UNL d   1     -17.251  -1.972 -11.603  0.00  0.00    -0.360 OA
ATOM     24  H   UNL d   1     -17.513  -1.463 -11.365  0.00  0.00     0.217 HD
ENDBRANCH   7  23
BRANCH  10  25
ATOM     25  O   UNL d   1     -18.210  -5.310 -10.921  0.00  0.00    -0.361 OA
ATOM     26  H   UNL d   1     -18.007  -5.714 -11.344  0.00  0.00     0.217 HD
ENDBRANCH  10  25
TORSDOF 6
ENDMDL
MODEL 3
REMARK VINA RESULT:    -7.892     24.012     25.400
REMARK INTER + INTRA:          -5.970
REMARK INTER:                  -9.442
REMARK INTRA:                   3.472
REMARK UNBOUND:                 3.537
REMARK  6 active torsions:
REMARK  status: ('A' for Active; 'I' for Inactive)
REMARK    1  A    between atoms: O_2  and  C_7 
REMARK    2  A    between atoms: O_3  and  C_13 
REMARK    3  A    between atoms: O_4  and  C_18 
REMARK    4  A    between atoms: O_5  and  C_19 
REMARK    5  A    between atoms: O_6  and  C_21 
REMARK    6  A    between atoms: C_8  and  C_12 
ROOT
ATOM      1  O   UNL d   1      -3.071  17.726  -8.434  0.00  0.00    -0.338 OA
ATOM      2  C   UNL d   1      -1.842  17.995  -7.243  0.00  0.00     0.156 A 
ATOM      3  C   UNL d   1      -2.768  18.159  -7.585  0.00  0.00     0.191 A 
ATOM      4  C   UNL d   1      -1.220  17.399  -7.750  0.00  0.00     0.079 A 
ATOM      5  C   UNL d   1      -1.523  16.965  -8.599  0.00  0.00     0.011 A 
ATOM      6  C   UNL d   1      -2.448  17.129  -8.941  0.00  0.00     0.081 A 
ATOM      7  C   UNL d   1      -0.864  16.346  -9.116  0.00  0.00     0.077 A 
ATOM      8  C   UNL d   1      -2.779  16.685  -9.824  0.00  0.00     0.074 A 
ATOM      9  C   UNL d   1      -1.173  15.892 -10.001  0.00  0.00     0.073 A 
ATOM     10  C   UNL d   1      -2.136  16.062 -10.357  0.00  0.00     0.071 A 
ENDROOT
BRANCH   3  11
ATOM     11  C   UNL d   1      -3.390  18.756  -7.079  0.00  0.00    -0.024 A 
ATOM     12  C   UNL d   1      -3.923  18.390  -6.316  0.00  0.00     0.049 A 
ATOM     13  C   UNL d   1      -4.546  18.986  -5.810  0.00  0.00     0.099 A 
ATOM     14  C   UNL d   1      -4.634  19.949  -6.065  0.00  0.00     0.098 A 
ATOM     15  C   UNL d   1      -4.100  20.315  -6.828  0.00  0.00     0.040 A 
ATOM     16  C   UNL d   1      -3.478  19.718  -7.334  0.00  0.00     0.013 A 
BRANCH  13  17
ATOM     17  O   UNL d   1      -5.079  18.620  -5.047  0.00  0.00    -0.358 OA
ATOM     18  H   UNL d   1      -5.156  18.008  -4.988  0.00  0.00     0.217 HD
ENDBRANCH  13  17
BRANCH  14  19
ATOM     19  O   UNL d   1      -5.256  20.546  -5.559  0.00  0.00    -0.358 OA
ATOM     20  H   UNL d   1      -5.686  20.300  -5.185  0.00  0.00     0.217 HD
ENDBRANCH  14  19
ENDBRANCH   3  11
BRANCH   2  21
ATOM     21  O   UNL d   1      -1.539  18.428  -6.394  0.00  0.00    -0.392 OA
ATOM     22  H   UNL d   1      -1.930  18.786  -6.072  0.00  0.00     0.210 HD
ENDBRANCH   2  21
BRANCH   7  23
ATOM     23  O   UNL d   1       0.059  16.190  -8.764  0.00  0.00    -0.360 OA
ATOM     24  H   UNL d   1       0.214  16.393  -8.200  0.00  0.00     0.217 HD
ENDBRANCH   7  23
BRANCH  10  25
ATOM     25  O   UNL d   1      -2.442  15.631 -11.205  0.00  0.00    -0.361 OA
ATOM     26  H   UNL d   1      -2.915  15.230 -11.197  0.00  0.00     0.217 HD
ENDBRANCH  10  25
TORSDOF 6
ENDMDL
MODEL 4
REMARK VINA RESULT:    -7.885     20.305     22.418
REMARK INTER + INTRA:          -5.962
REMARK INTER:                  -9.425
REMARK INTRA:                   3.463
REMARK UNBOUND:                 3.537
REMARK  6 active torsions:
REMARK  status: ('A' for Active; 'I' for Inactive)
REMARK    1  A    between atoms: O_2  and  C_7 
REMARK    2  A    between atoms: O_3  and  C_13 
REMARK    3  A    between atoms: O_4  and  C_18 
REMARK    4  A    between atoms: O_5  and  C_19 
REMARK    5  A    between atoms: O_6  and  C_21 
REMARK    6  A    between atoms: C_8  and  C_12 
ROOT
ATOM      1  O   UNL d   1     -16.305   6.598 -27.611  0.00  0.00    -0.338 OA
ATOM      2  C   UNL d   1     -17.453   7.015 -26.383  0.00  0.00     0.156 A 
ATOM      3  C   UNL d   1     -17.182   6.998 -27.345  0.00  0.00     0.191 A 
ATOM      4  C   UNL d   1     -16.847   6.631 -25.686  0.00  0.00     0.079 A 
ATOM      5  C   UNL d   1     -15.970   6.232 -25.952  0.00  0.00     0.011 A 
ATOM      6  C   UNL d   1     -15.699   6.215 -26.914  0.00  0.00     0.081 A 
ATOM      7  C   UNL d   1     -15.349   5.836 -25.215  0.00  0.00     0.077 A 
ATOM      8  C   UNL d   1     -14.788   5.802 -27.207  0.00  0.00     0.074 A 
ATOM      9  C   UNL d   1     -14.434   5.418 -25.485  0.00  0.00     0.073 A 
ATOM     10  C   UNL d   1     -14.152   5.401 -26.487  0.00  0.00     0.071 A 
ENDROOT
BRANCH   3  11
ATOM     11  C   UNL d   1     -17.789   7.382 -28.042  0.00  0.00    -0.024 A 
ATOM     12  C   UNL d   1     -17.747   8.357 -28.259  0.00  0.00     0.049 A 
ATOM     13  C   UNL d   1     -18.353   8.740 -28.956  0.00  0.00     0.099 A 
ATOM     14  C   UNL d   1     -19.001   8.149 -29.435  0.00  0.00     0.098 A 
ATOM     15  C   UNL d   1     -19.043   7.173 -29.218  0.00  0.00     0.040 A 
ATOM     16  C   UNL d   1     -18.437   6.790 -28.521  0.00  0.00     0.013 A 
BRANCH  13  17
ATOM     17  O   UNL d   1     -18.311   9.715 -29.174  0.00  0.00    -0.358 OA
ATOM     18  H   UNL d   1     -17.880   9.927 -29.566  0.00  0.00     0.217 HD
ENDBRANCH  13  17
BRANCH  14  19
ATOM     19  O   UNL d   1     -19.607   8.532 -30.132  0.00  0.00    -0.358 OA
ATOM     20  H   UNL d   1     -19.831   9.107 -30.066  0.00  0.00     0.217 HD
ENDBRANCH  14  19
ENDBRANCH   3  11
BRANCH   2  21
ATOM     21  O   UNL d   1     -18.330   7.415 -26.117  0.00  0.00    -0.392 OA
ATOM     22  H   UNL d   1     -18.652   7.172 -25.646  0.00  0.00     0.210 HD
ENDBRANCH   2  21
BRANCH   7  23
ATOM     23  O   UNL d   1     -15.630   5.858 -24.256  0.00  0.00    -0.360 OA
ATOM     24  H   UNL d   1     -15.899   6.366 -24.024  0.00  0.00     0.217 HD
ENDBRANCH   7  23
BRANCH  10  25
ATOM     25  O   UNL d   1     -13.275   5.002 -26.756  0.00  0.00    -0.361 OA
ATOM     26  H   UNL d   1     -13.253   4.424 -26.980  0.00  0.00     0.217 HD
ENDBRANCH  10  25
TORSDOF 6
ENDMDL
MODEL 5
REMARK VINA RESULT:    -7.690      1.202      5.120
REMARK INTER + INTRA:          -5.727
REMARK INTER:                  -9.366
REMARK INTRA:                   3.639
REMARK UNBOUND:                 3.537
REMARK  6 active torsions:
REMARK  status: ('A' for Active; 'I' for Inactive)
REMARK    1  A    between atoms: O_2  and  C_7 
REMARK    2  A    between atoms: O_3  and  C_13 
REMARK    3  A    between atoms: O_4  and  C_18 
REMARK    4  A    between atoms: O_5  and  C_19 
REMARK    5  A    between atoms: O_6  and  C_21 
REMARK    6  A    between atoms: C_8  and  C_12 
ROOT
ATOM      1  O   UNL d   1     -16.304  -2.913  -9.086  0.00  0.00    -0.338 OA
ATOM      2  C   UNL d   1     -16.743  -4.464  -8.452  0.00  0.00     0.156 A 
ATOM      3  C   UNL d   1     -16.290  -3.580  -8.341  0.00  0.00     0.191 A 
ATOM      4  C   UNL d   1     -17.209  -4.682  -9.309  0.00  0.00     0.079 A 
ATOM      5  C   UNL d   1     -17.223  -4.016 -10.055  0.00  0.00     0.011 A 
ATOM      6  C   UNL d   1     -16.770  -3.132  -9.943  0.00  0.00     0.081 A 
ATOM      7  C   UNL d   1     -17.713  -4.257 -10.941  0.00  0.00     0.077 A 
ATOM      8  C   UNL d   1     -16.776  -2.427 -10.711  0.00  0.00     0.074 A 
ATOM      9  C   UNL d   1     -17.732  -3.568 -11.722  0.00  0.00     0.073 A 
ATOM     10  C   UNL d   1     -17.260  -2.647 -11.606  0.00  0.00     0.071 A 
ENDROOT
BRANCH   3  11
ATOM     11  C   UNL d   1     -15.823  -3.361  -7.484  0.00  0.00    -0.024 A 
ATOM     12  C   UNL d   1     -14.824  -3.337  -7.450  0.00  0.00     0.049 A 
ATOM     13  C   UNL d   1     -14.357  -3.119  -6.593  0.00  0.00     0.099 A 
ATOM     14  C   UNL d   1     -14.889  -2.925  -5.770  0.00  0.00     0.098 A 
ATOM     15  C   UNL d   1     -15.889  -2.949  -5.803  0.00  0.00     0.040 A 
ATOM     16  C   UNL d   1     -16.355  -3.167  -6.660  0.00  0.00     0.013 A 
BRANCH  13  17
ATOM     17  O   UNL d   1     -13.358  -3.095  -6.560  0.00  0.00    -0.358 OA
ATOM     18  H   UNL d   1     -13.028  -3.196  -7.076  0.00  0.00     0.217 HD
ENDBRANCH  13  17
BRANCH  14  19
ATOM     19  O   UNL d   1     -14.423  -2.707  -4.913  0.00  0.00    -0.358 OA
ATOM     20  H   UNL d   1     -14.016  -3.107  -4.670  0.00  0.00     0.217 HD
ENDBRANCH  14  19
ENDBRANCH   3  11
BRANCH   2  21
ATOM     21  O   UNL d   1     -16.729  -5.131  -7.707  0.00  0.00    -0.392 OA
ATOM     22  H   UNL d   1     -17.004  -4.998  -7.167  0.00  0.00     0.210 HD
ENDBRANCH   2  21
BRANCH   7  23
ATOM     23  O   UNL d   1     -18.163  -5.145 -11.042  0.00  0.00    -0.360 OA
ATOM     24  H   UNL d   1     -18.768  -5.173 -11.173  0.00  0.00     0.217 HD
ENDBRANCH   7  23
BRANCH  10  25
ATOM     25  O   UNL d   1     -17.272  -1.979 -12.350  0.00  0.00    -0.361 OA
ATOM     26  H   UNL d   1     -16.889  -1.493 -12.336  0.00  0.00     0.217 HD
ENDBRANCH  10  25
TORSDOF 6
ENDMDL
