MODEL 1
REMARK VINA RESULT:    -8.113      0.000      0.000
REMARK INTER + INTRA:          -7.949
REMARK INTER:                  -9.828
REMARK INTRA:                   1.879
REMARK UNBOUND:                 1.824
REMARK  5 active torsions:
REMARK  status: ('A' for Active; 'I' for Inactive)
REMARK    1  A    between atoms: O_2  and  C_13 
REMARK    2  A    between atoms: O_3  and  C_19 
REMARK    3  A    between atoms: O_5  and  C_17 
REMARK    4  A    between atoms: O_6  and  C_21 
REMARK    5  A    between atoms: C_8  and  C_10 
ROOT
ATOM      1  O   UNL d   1     -16.515   6.575 -27.821  0.00  0.00    -0.309 OA
ATOM      2  O   UNL d   1     -17.102   7.091 -24.925  0.00  0.00    -0.287 OA
ATOM      3  C   UNL d   1     -16.110   6.373 -26.149  0.00  0.00     0.081 A 
ATOM      4  C   UNL d   1     -17.312   7.122 -27.562  0.00  0.00     0.090 A 
ATOM      5  C   UNL d   1     -15.914   6.201 -27.115  0.00  0.00     0.095 A 
ATOM      6  C   UNL d   1     -16.907   6.919 -25.890  0.00  0.00     0.190 A 
ATOM      7  C   UNL d   1     -17.507   7.293 -26.596  0.00  0.00     0.094 A 
ATOM      8  C   UNL d   1     -15.493   5.990 -25.403  0.00  0.00     0.085 A 
ATOM      9  C   UNL d   1     -15.088   5.634 -27.400  0.00  0.00     0.075 A 
ATOM     10  C   UNL d   1     -14.458   5.241 -26.670  0.00  0.00     0.071 A 
ATOM     11  C   UNL d   1     -14.662   5.420 -25.665  0.00  0.00     0.074 A 
ENDROOT
BRANCH   4  12
ATOM     12  C   UNL d   1     -17.912   7.496 -28.268  0.00  0.00     0.001 A 
ATOM     13  C   UNL d   1     -17.923   8.480 -28.445  0.00  0.00     0.054 A 
ATOM     14  C   UNL d   1     -18.524   8.854 -29.152  0.00  0.00     0.102 A 
ATOM     15  C   UNL d   1     -19.114   8.244 -29.681  0.00  0.00     0.099 A 
ATOM     16  C   UNL d   1     -19.103   7.260 -29.504  0.00  0.00     0.040 A 
ATOM     17  C   UNL d   1     -18.502   6.886 -28.797  0.00  0.00     0.017 A 
BRANCH  14  18
ATOM     18  O   UNL d   1     -18.535   9.838 -29.329  0.00  0.00    -0.353 OA
ATOM     19  C   UNL d   1     -18.119  10.469 -28.674  0.00  0.00     0.210 C 
ENDBRANCH  14  18
BRANCH  15  20
ATOM     20  O   UNL d   1     -19.715   8.619 -30.387  0.00  0.00    -0.358 OA
ATOM     21  H   UNL d   1     -20.254   8.341 -30.515  0.00  0.00     0.217 HD
ENDBRANCH  15  20
ENDBRANCH   4  12
BRANCH   8  22
ATOM     22  O   UNL d   1     -15.699   6.168 -24.440  0.00  0.00    -0.360 OA
ATOM     23  H   UNL d   1     -16.259   6.034 -24.214  0.00  0.00     0.217 HD
ENDBRANCH   8  22
BRANCH  10  24
ATOM     24  O   UNL d   1     -13.662   4.695 -26.934  0.00  0.00    -0.361 OA
ATOM     25  H   UNL d   1     -13.096   4.860 -26.741  0.00  0.00     0.217 HD
ENDBRANCH  10  24
TORSDOF 5
ENDMDL
MODEL 2
REMARK VINA RESULT:    -7.997     19.971     22.527
REMARK INTER + INTRA:          -7.809
REMARK INTER:                  -9.650
REMARK INTRA:                   1.841
REMARK UNBOUND:                 1.824
REMARK  5 active torsions:
REMARK  status: ('A' for Active; 'I' for Inactive)
REMARK    1  A    between atoms: O_2  and  C_13 
REMARK    2  A    between atoms: O_3  and  C_19 
REMARK    3  A    between atoms: O_5  and  C_17 
REMARK    4  A    between atoms: O_6  and  C_21 
REMARK    5  A    between atoms: C_8  and  C_10 
ROOT
ATOM      1  O   UNL d   1     -14.699  -3.774  -7.873  0.00  0.00    -0.309 OA
ATOM      2  O   UNL d   1     -16.100  -2.860  -5.383  0.00  0.00    -0.287 OA
ATOM      3  C   UNL d   1     -14.635  -3.149  -6.259  0.00  0.00     0.081 A 
ATOM      4  C   UNL d   1     -15.698  -3.790  -7.827  0.00  0.00     0.090 A 
ATOM      5  C   UNL d   1     -14.168  -3.453  -7.089  0.00  0.00     0.095 A 
ATOM      6  C   UNL d   1     -15.633  -3.165  -6.213  0.00  0.00     0.190 A 
ATOM      7  C   UNL d   1     -16.165  -3.485  -6.997  0.00  0.00     0.094 A 
ATOM      8  C   UNL d   1     -14.094  -2.812  -5.435  0.00  0.00     0.085 A 
ATOM      9  C   UNL d   1     -13.128  -3.443  -7.153  0.00  0.00     0.075 A 
ATOM     10  C   UNL d   1     -12.567  -3.110  -6.340  0.00  0.00     0.071 A 
ATOM     11  C   UNL d   1     -13.053  -2.793  -5.476  0.00  0.00     0.074 A 
ENDROOT
BRANCH   4  12
ATOM     12  C   UNL d   1     -16.230  -4.111  -8.610  0.00  0.00     0.001 A 
ATOM     13  C   UNL d   1     -16.498  -3.469  -9.329  0.00  0.00     0.054 A 
ATOM     14  C   UNL d   1     -17.030  -3.790 -10.113  0.00  0.00     0.102 A 
ATOM     15  C   UNL d   1     -17.293  -4.752 -10.178  0.00  0.00     0.099 A 
ATOM     16  C   UNL d   1     -17.025  -5.394  -9.460  0.00  0.00     0.040 A 
ATOM     17  C   UNL d   1     -16.493  -5.073  -8.676  0.00  0.00     0.017 A 
BRANCH  14  18
ATOM     18  O   UNL d   1     -17.298  -3.148 -10.831  0.00  0.00    -0.353 OA
ATOM     19  C   UNL d   1     -16.781  -2.303 -10.965  0.00  0.00     0.210 C 
ENDBRANCH  14  18
BRANCH  15  20
ATOM     20  O   UNL d   1     -17.825  -5.073 -10.962  0.00  0.00    -0.358 OA
ATOM     21  H   UNL d   1     -17.564  -5.101 -11.523  0.00  0.00     0.217 HD
ENDBRANCH  15  20
ENDBRANCH   4  12
BRANCH   8  22
ATOM     22  O   UNL d   1     -14.572  -2.510  -4.610  0.00  0.00    -0.360 OA
ATOM     23  H   UNL d   1     -14.966  -2.892  -4.323  0.00  0.00     0.217 HD
ENDBRANCH   8  22
BRANCH  10  24
ATOM     24  O   UNL d   1     -11.568  -3.095  -6.391  0.00  0.00    -0.361 OA
ATOM     25  H   UNL d   1     -11.283  -3.243  -6.921  0.00  0.00     0.217 HD
ENDBRANCH  10  24
TORSDOF 5
ENDMDL
MODEL 3
REMARK VINA RESULT:    -7.887     19.234     22.244
REMARK INTER + INTRA:          -7.677
REMARK INTER:                  -9.508
REMARK INTRA:                   1.831
REMARK UNBOUND:                 1.824
REMARK  5 active torsions:
REMARK  status: ('A' for Active; 'I' for Inactive)
REMARK    1  A    between atoms: O_2  and  C_13 
REMARK    2  A    between atoms: O_3  and  C_19 
REMARK    3  A    between atoms: O_5  and  C_17 
REMARK    4  A    between atoms: O_6  and  C_21 
REMARK    5  A    between atoms: C_8  and  C_10 
ROOT
ATOM      1  O   UNL d   1     -15.737  -2.810  -8.937  0.00  0.00    -0.309 OA
ATOM      2  O   UNL d   1     -17.046  -5.507  -9.028  0.00  0.00    -0.287 OA
ATOM      3  C   UNL d   1     -16.779  -3.946  -9.727  0.00  0.00     0.081 A 
ATOM      4  C   UNL d   1     -15.568  -3.473  -8.208  0.00  0.00     0.090 A 
ATOM      5  C   UNL d   1     -16.342  -3.046  -9.697  0.00  0.00     0.095 A 
ATOM      6  C   UNL d   1     -16.610  -4.608  -8.998  0.00  0.00     0.190 A 
ATOM      7  C   UNL d   1     -16.004  -4.372  -8.238  0.00  0.00     0.094 A 
ATOM      8  C   UNL d   1     -17.412  -4.206 -10.512  0.00  0.00     0.085 A 
ATOM      9  C   UNL d   1     -16.509  -2.345 -10.450  0.00  0.00     0.075 A 
ATOM     10  C   UNL d   1     -17.138  -2.584 -11.244  0.00  0.00     0.071 A 
ATOM     11  C   UNL d   1     -17.593  -3.520 -11.276  0.00  0.00     0.074 A 
ENDROOT
BRANCH   4  12
ATOM     12  C   UNL d   1     -14.962  -3.236  -7.448  0.00  0.00     0.001 A 
ATOM     13  C   UNL d   1     -13.971  -3.308  -7.558  0.00  0.00     0.054 A 
ATOM     14  C   UNL d   1     -13.365  -3.072  -6.798  0.00  0.00     0.102 A 
ATOM     15  C   UNL d   1     -13.751  -2.763  -5.928  0.00  0.00     0.099 A 
ATOM     16  C   UNL d   1     -14.742  -2.691  -5.819  0.00  0.00     0.040 A 
ATOM     17  C   UNL d   1     -15.348  -2.928  -6.578  0.00  0.00     0.017 A 
BRANCH  14  18
ATOM     18  O   UNL d   1     -12.374  -3.144  -6.907  0.00  0.00    -0.353 OA
ATOM     19  C   UNL d   1     -11.986  -3.413  -7.789  0.00  0.00     0.210 C 
ENDBRANCH  14  18
BRANCH  15  20
ATOM     20  O   UNL d   1     -13.145  -2.527  -5.169  0.00  0.00    -0.358 OA
ATOM     21  H   UNL d   1     -12.567  -2.750  -5.152  0.00  0.00     0.217 HD
ENDBRANCH  15  20
ENDBRANCH   4  12
BRANCH   8  22
ATOM     22  O   UNL d   1     -17.843  -5.108 -10.532  0.00  0.00    -0.360 OA
ATOM     23  H   UNL d   1     -17.567  -5.576 -10.829  0.00  0.00     0.217 HD
ENDBRANCH   8  22
BRANCH  10  24
ATOM     24  O   UNL d   1     -17.305  -1.918 -11.972  0.00  0.00    -0.361 OA
ATOM     25  H   UNL d   1     -17.469  -2.112 -12.537  0.00  0.00     0.217 HD
ENDBRANCH  10  24
TORSDOF 5
ENDMDL
MODEL 4
REMARK VINA RESULT:    -7.792     20.104     22.779
REMARK INTER + INTRA:          -7.563
REMARK INTER:                  -9.387
REMARK INTRA:                   1.824
REMARK UNBOUND:                 1.824
REMARK  5 active torsions:
REMARK  status: ('A' for Active; 'I' for Inactive)
REMARK    1  A    between atoms: O_2  and  C_13 
REMARK    2  A    between atoms: O_3  and  C_19 
REMARK    3  A    between atoms: O_5  and  C_17 
REMARK    4  A    between atoms: O_6  and  C_21 
REMARK    5  A    between atoms: C_8  and  C_10 
ROOT
ATOM      1  O   UNL d   1     -15.083  -3.504  -7.013  0.00  0.00    -0.309 OA
ATOM      2  O   UNL d   1     -12.215  -3.884  -7.806  0.00  0.00    -0.287 OA
ATOM      3  C   UNL d   1     -13.395  -3.336  -6.663  0.00  0.00     0.081 A 
ATOM      4  C   UNL d   1     -14.859  -3.926  -7.892  0.00  0.00     0.090 A 
ATOM      5  C   UNL d   1     -14.351  -3.209  -6.399  0.00  0.00     0.095 A 
ATOM      6  C   UNL d   1     -13.171  -3.757  -7.542  0.00  0.00     0.190 A 
ATOM      7  C   UNL d   1     -13.903  -4.052  -8.156  0.00  0.00     0.094 A 
ATOM      8  C   UNL d   1     -12.623  -3.033  -6.034  0.00  0.00     0.085 A 
ATOM      9  C   UNL d   1     -14.601  -2.771  -5.487  0.00  0.00     0.075 A 
ATOM     10  C   UNL d   1     -13.844  -2.461  -4.842  0.00  0.00     0.071 A 
ATOM     11  C   UNL d   1     -12.849  -2.593  -5.117  0.00  0.00     0.074 A 
ENDROOT
BRANCH   4  12
ATOM     12  C   UNL d   1     -15.591  -4.221  -8.506  0.00  0.00     0.001 A 
ATOM     13  C   UNL d   1     -15.963  -3.585  -9.182  0.00  0.00     0.054 A 
ATOM     14  C   UNL d   1     -16.695  -3.880  -9.796  0.00  0.00     0.102 A 
ATOM     15  C   UNL d   1     -17.054  -4.811  -9.734  0.00  0.00     0.099 A 
ATOM     16  C   UNL d   1     -16.682  -5.447  -9.059  0.00  0.00     0.040 A 
ATOM     17  C   UNL d   1     -15.950  -5.152  -8.444  0.00  0.00     0.017 A 
BRANCH  14  18
ATOM     18  O   UNL d   1     -17.067  -3.244 -10.472  0.00  0.00    -0.353 OA
ATOM     19  C   UNL d   1     -16.580  -2.396 -10.682  0.00  0.00     0.210 C 
ENDBRANCH  14  18
BRANCH  15  20
ATOM     20  O   UNL d   1     -17.786  -5.106 -10.349  0.00  0.00    -0.358 OA
ATOM     21  H   UNL d   1     -17.925  -5.708 -10.399  0.00  0.00     0.217 HD
ENDBRANCH  15  20
ENDBRANCH   4  12
BRANCH   8  22
ATOM     22  O   UNL d   1     -11.670  -3.165  -6.308  0.00  0.00    -0.360 OA
ATOM     23  H   UNL d   1     -11.231  -3.239  -5.877  0.00  0.00     0.217 HD
ENDBRANCH   8  22
BRANCH  10  24
ATOM     24  O   UNL d   1     -14.072  -2.040  -3.964  0.00  0.00    -0.361 OA
ATOM     25  H   UNL d   1     -14.648  -1.836  -3.859  0.00  0.00     0.217 HD
ENDBRANCH  10  24
TORSDOF 5
ENDMDL
MODEL 5
REMARK VINA RESULT:    -7.700     24.998     27.032
REMARK INTER + INTRA:          -7.452
REMARK INTER:                  -9.438
REMARK INTRA:                   1.986
REMARK UNBOUND:                 1.824
REMARK  5 active torsions:
REMARK  status: ('A' for Active; 'I' for Inactive)
REMARK    1  A    between atoms: O_2  and  C_13 
REMARK    2  A    between atoms: O_3  and  C_19 
REMARK    3  A    between atoms: O_5  and  C_17 
REMARK    4  A    between atoms: O_6  and  C_21 
REMARK    5  A    between atoms: C_8  and  C_10 
ROOT
ATOM      1  O   UNL d   1      -2.073  17.817  -7.513  0.00  0.00    -0.309 OA
ATOM      2  O   UNL d   1      -3.616  16.978  -9.946  0.00  0.00    -0.287 OA
ATOM      3  C   UNL d   1      -2.153  16.964  -9.018  0.00  0.00     0.081 A 
ATOM      4  C   UNL d   1      -3.022  18.110  -7.629  0.00  0.00     0.090 A 
ATOM      5  C   UNL d   1      -1.639  17.244  -8.208  0.00  0.00     0.095 A 
ATOM      6  C   UNL d   1      -3.102  17.258  -9.135  0.00  0.00     0.190 A 
ATOM      7  C   UNL d   1      -3.536  17.831  -8.440  0.00  0.00     0.094 A 
ATOM      8  C   UNL d   1      -1.713  16.368  -9.750  0.00  0.00     0.085 A 
ATOM      9  C   UNL d   1      -0.649  16.946  -8.072  0.00  0.00     0.075 A 
ATOM     10  C   UNL d   1      -0.190  16.350  -8.792  0.00  0.00     0.071 A 
ATOM     11  C   UNL d   1      -0.725  16.058  -9.636  0.00  0.00     0.074 A 
ENDROOT
BRANCH   4  12
ATOM     12  C   UNL d   1      -3.457  18.683  -6.934  0.00  0.00     0.001 A 
ATOM     13  C   UNL d   1      -3.005  19.519  -6.621  0.00  0.00     0.054 A 
ATOM     14  C   UNL d   1      -3.440  20.092  -5.926  0.00  0.00     0.102 A 
ATOM     15  C   UNL d   1      -4.327  19.829  -5.545  0.00  0.00     0.099 A 
ATOM     16  C   UNL d   1      -4.778  18.994  -5.858  0.00  0.00     0.040 A 
ATOM     17  C   UNL d   1      -4.343  18.421  -6.553  0.00  0.00     0.017 A 
BRANCH  14  18
ATOM     18  O   UNL d   1      -2.989  20.927  -5.613  0.00  0.00    -0.353 OA
ATOM     19  C   UNL d   1      -2.080  21.163  -5.957  0.00  0.00     0.210 C 
ENDBRANCH  14  18
BRANCH  15  20
ATOM     20  O   UNL d   1      -4.761  20.402  -4.850  0.00  0.00    -0.358 OA
ATOM     21  H   UNL d   1      -4.813  20.197  -4.267  0.00  0.00     0.217 HD
ENDBRANCH  15  20
ENDBRANCH   4  12
BRANCH   8  22
ATOM     22  O   UNL d   1      -2.237  16.094 -10.557  0.00  0.00    -0.360 OA
ATOM     23  H   UNL d   1      -2.260  16.467 -11.052  0.00  0.00     0.217 HD
ENDBRANCH   8  22
BRANCH  10  24
ATOM     24  O   UNL d   1       0.760  16.058  -8.672  0.00  0.00    -0.361 OA
ATOM     25  H   UNL d   1       0.907  15.663  -8.217  0.00  0.00     0.217 HD
ENDBRANCH  10  24
TORSDOF 5
ENDMDL
