MODEL 1
REMARK VINA RESULT:    -8.062      0.000      0.000
REMARK INTER + INTRA:          -0.038
REMARK INTER:                 -10.465
REMARK INTRA:                  10.427
REMARK UNBOUND:                10.381
REMARK  5 active torsions:
REMARK  status: ('A' for Active; 'I' for Inactive)
REMARK    1  A    between atoms: C_6  and  C_13 
REMARK    2  A    between atoms: C_13  and  C_19 
REMARK    3  A    between atoms: C_19  and  C_24 
REMARK    4  A    between atoms: C_24  and  C_25 
REMARK    5  A    between atoms: C_25  and  C_26 
ROOT
ATOM      1  O   UNL d   1     -21.062 -14.560 -14.221  0.00  0.00    -0.293 OA
ATOM      2  C   UNL d   1     -21.307 -12.861  -8.266  0.00  0.00    -0.036 A 
ATOM      3  C   UNL d   1     -20.798 -13.683  -8.523  0.00  0.00    -0.002 A 
ATOM      4  C   UNL d   1     -20.754 -13.963  -9.482  0.00  0.00    -0.004 A 
ATOM      5  C   UNL d   1     -21.218 -13.423 -10.183  0.00  0.00     0.002 A 
ATOM      6  C   UNL d   1     -21.232 -12.753  -7.281  0.00  0.00    -0.002 A 
ATOM      7  C   UNL d   1     -21.771 -12.320  -8.967  0.00  0.00     0.010 A 
ATOM      8  C   UNL d   1     -20.414 -14.075  -7.695  0.00  0.00     0.006 A 
ATOM      9  C   UNL d   1     -21.181 -13.703 -11.186  0.00  0.00    -0.016 A 
ATOM     10  C   UNL d   1     -21.727 -12.601  -9.926  0.00  0.00     0.007 A 
ATOM     11  C   UNL d   1     -20.682 -13.502  -6.928  0.00  0.00     0.006 A 
ATOM     12  C   UNL d   1     -20.220 -14.822  -9.735  0.00  0.00     0.010 A 
ATOM     13  C   UNL d   1     -21.816 -12.039  -8.008  0.00  0.00     0.016 C 
ATOM     14  C   UNL d   1     -20.653 -14.557 -11.462  0.00  0.00    -0.068 A 
ATOM     15  C   UNL d   1     -20.169 -15.121 -10.732  0.00  0.00     0.035 A 
ATOM     16  C   UNL d   1     -21.693 -13.100 -11.929  0.00  0.00     0.022 A 
ATOM     17  C   UNL d   1     -21.688 -12.882 -10.921  0.00  0.00     0.020 C 
ATOM     18  C   UNL d   1     -21.654 -13.391 -12.974  0.00  0.00     0.084 A 
ATOM     19  C   UNL d   1     -20.600 -14.869 -12.500  0.00  0.00     0.053 A 
ATOM     20  C   UNL d   1     -21.104 -14.282 -13.261  0.00  0.00     0.149 A 
ENDROOT
BRANCH   6  21
ATOM     21  C   UNL d   1     -21.640 -12.019  -6.738  0.00  0.00    -0.014 C 
ATOM     22  C   UNL d   1     -22.583 -12.101  -6.414  0.00  0.00     0.010 C 
BRANCH  21  23
ATOM     23  C   UNL d   1     -21.106 -11.202  -6.519  0.00  0.00     0.005 C 
BRANCH  23  24
ATOM     24  C   UNL d   1     -21.255 -10.725  -5.653  0.00  0.00     0.005 C 
BRANCH  24  25
ATOM     25  C   UNL d   1     -20.677  -9.946  -5.406  0.00  0.00    -0.015 C 
ATOM     26  C   UNL d   1     -20.053  -9.553  -6.082  0.00  0.00     0.010 C 
BRANCH  25  27
ATOM     27  C   UNL d   1     -20.725  -9.561  -4.485  0.00  0.00    -0.019 C 
ATOM     28  C   UNL d   1     -19.896  -9.217  -4.044  0.00  0.00     0.010 C 
ATOM     29  C   UNL d   1     -21.602  -9.520  -4.005  0.00  0.00     0.010 C 
ENDBRANCH  25  27
ENDBRANCH  24  25
ENDBRANCH  23  24
ENDBRANCH  21  23
ENDBRANCH   6  21
TORSDOF 5
ENDMDL
MODEL 2
REMARK VINA RESULT:    -8.006      2.747      6.587
REMARK INTER + INTRA:           0.035
REMARK INTER:                 -10.422
REMARK INTRA:                  10.457
REMARK UNBOUND:                10.381
REMARK  5 active torsions:
REMARK  status: ('A' for Active; 'I' for Inactive)
REMARK    1  A    between atoms: C_6  and  C_13 
REMARK    2  A    between atoms: C_13  and  C_19 
REMARK    3  A    between atoms: C_19  and  C_24 
REMARK    4  A    between atoms: C_24  and  C_25 
REMARK    5  A    between atoms: C_25  and  C_26 
ROOT
ATOM      1  O   UNL d   1     -20.577  -9.187  -4.859  0.00  0.00    -0.293 OA
ATOM      2  C   UNL d   1     -21.091 -13.858  -8.899  0.00  0.00    -0.036 A 
ATOM      3  C   UNL d   1     -21.753 -13.110  -8.925  0.00  0.00    -0.002 A 
ATOM      4  C   UNL d   1     -21.677 -12.352  -8.276  0.00  0.00    -0.004 A 
ATOM      5  C   UNL d   1     -20.939 -12.344  -7.602  0.00  0.00     0.002 A 
ATOM      6  C   UNL d   1     -21.334 -14.504  -9.614  0.00  0.00    -0.002 A 
ATOM      7  C   UNL d   1     -20.353 -13.850  -8.225  0.00  0.00     0.010 A 
ATOM      8  C   UNL d   1     -22.400 -13.300  -9.655  0.00  0.00     0.006 A 
ATOM      9  C   UNL d   1     -20.847 -11.562  -6.920  0.00  0.00    -0.016 A 
ATOM     10  C   UNL d   1     -20.276 -13.092  -7.576  0.00  0.00     0.007 A 
ATOM     11  C   UNL d   1     -22.142 -14.161 -10.081  0.00  0.00     0.006 A 
ATOM     12  C   UNL d   1     -22.375 -11.579  -8.316  0.00  0.00     0.010 A 
ATOM     13  C   UNL d   1     -20.429 -14.607  -8.873  0.00  0.00     0.016 C 
ATOM     14  C   UNL d   1     -21.533 -10.778  -6.941  0.00  0.00    -0.068 A 
ATOM     15  C   UNL d   1     -22.302 -10.787  -7.643  0.00  0.00     0.035 A 
ATOM     16  C   UNL d   1     -20.037 -11.574  -6.198  0.00  0.00     0.022 A 
ATOM     17  C   UNL d   1     -20.188 -12.314  -6.901  0.00  0.00     0.020 C 
ATOM     18  C   UNL d   1     -19.941 -10.759  -5.487  0.00  0.00     0.084 A 
ATOM     19  C   UNL d   1     -21.458  -9.952  -6.241  0.00  0.00     0.053 A 
ATOM     20  C   UNL d   1     -20.656  -9.943  -5.509  0.00  0.00     0.149 A 
ENDROOT
BRANCH   6  21
ATOM     21  C   UNL d   1     -20.851 -15.354  -9.827  0.00  0.00    -0.014 C 
ATOM     22  C   UNL d   1     -20.049 -15.336 -10.424  0.00  0.00     0.010 C 
BRANCH  21  23
ATOM     23  C   UNL d   1     -21.170 -16.221  -9.442  0.00  0.00     0.005 C 
BRANCH  23  24
ATOM     24  C   UNL d   1     -21.190 -17.043 -10.012  0.00  0.00     0.005 C 
BRANCH  24  25
ATOM     25  C   UNL d   1     -21.690 -17.852  -9.704  0.00  0.00    -0.015 C 
ATOM     26  C   UNL d   1     -22.470 -17.752  -9.086  0.00  0.00     0.010 C 
BRANCH  25  27
ATOM     27  C   UNL d   1     -21.410 -18.760 -10.015  0.00  0.00    -0.019 C 
ATOM     28  C   UNL d   1     -21.435 -19.534  -9.381  0.00  0.00     0.010 C 
ATOM     29  C   UNL d   1     -21.106 -18.895 -10.958  0.00  0.00     0.010 C 
ENDBRANCH  25  27
ENDBRANCH  24  25
ENDBRANCH  23  24
ENDBRANCH  21  23
ENDBRANCH   6  21
TORSDOF 5
ENDMDL
MODEL 3
REMARK VINA RESULT:    -7.959      3.786      7.214
REMARK INTER + INTRA:           0.096
REMARK INTER:                 -10.229
REMARK INTRA:                  10.325
REMARK UNBOUND:                10.381
REMARK  5 active torsions:
REMARK  status: ('A' for Active; 'I' for Inactive)
REMARK    1  A    between atoms: C_6  and  C_13 
REMARK    2  A    between atoms: C_13  and  C_19 
REMARK    3  A    between atoms: C_19  and  C_24 
REMARK    4  A    between atoms: C_24  and  C_25 
REMARK    5  A    between atoms: C_25  and  C_26 
ROOT
ATOM      1  O   UNL d   1     -18.794 -17.134  -1.290  0.00  0.00    -0.293 OA
ATOM      2  C   UNL d   1     -20.694 -14.939  -6.766  0.00  0.00    -0.036 A 
ATOM      3  C   UNL d   1     -20.115 -14.371  -6.181  0.00  0.00    -0.002 A 
ATOM      4  C   UNL d   1     -19.804 -14.718  -5.296  0.00  0.00    -0.004 A 
ATOM      5  C   UNL d   1     -20.072 -15.633  -4.996  0.00  0.00     0.002 A 
ATOM      6  C   UNL d   1     -20.893 -14.423  -7.591  0.00  0.00    -0.002 A 
ATOM      7  C   UNL d   1     -20.962 -15.855  -6.466  0.00  0.00     0.010 A 
ATOM      8  C   UNL d   1     -19.962 -13.508  -6.650  0.00  0.00     0.006 A 
ATOM      9  C   UNL d   1     -19.757 -16.008  -4.077  0.00  0.00    -0.016 A 
ATOM     10  C   UNL d   1     -20.651 -16.202  -5.581  0.00  0.00     0.007 A 
ATOM     11  C   UNL d   1     -20.442 -13.540  -7.521  0.00  0.00     0.006 A 
ATOM     12  C   UNL d   1     -19.202 -14.113  -4.698  0.00  0.00     0.010 A 
ATOM     13  C   UNL d   1     -21.272 -15.508  -7.351  0.00  0.00     0.016 C 
ATOM     14  C   UNL d   1     -19.154 -15.421  -3.462  0.00  0.00    -0.068 A 
ATOM     15  C   UNL d   1     -18.874 -14.468  -3.775  0.00  0.00     0.035 A 
ATOM     16  C   UNL d   1     -20.060 -17.004  -3.772  0.00  0.00     0.022 A 
ATOM     17  C   UNL d   1     -20.335 -16.571  -4.667  0.00  0.00     0.020 C 
ATOM     18  C   UNL d   1     -19.731 -17.395  -2.815  0.00  0.00     0.084 A 
ATOM     19  C   UNL d   1     -18.812 -15.790  -2.501  0.00  0.00     0.053 A 
ATOM     20  C   UNL d   1     -19.103 -16.784  -2.175  0.00  0.00     0.149 A 
ENDROOT
BRANCH   6  21
ATOM     21  C   UNL d   1     -21.451 -14.737  -8.360  0.00  0.00    -0.014 C 
ATOM     22  C   UNL d   1     -22.439 -14.586  -8.354  0.00  0.00     0.010 C 
BRANCH  21  23
ATOM     23  C   UNL d   1     -21.019 -15.202  -9.134  0.00  0.00     0.005 C 
BRANCH  23  24
ATOM     24  C   UNL d   1     -21.337 -15.021 -10.065  0.00  0.00     0.005 C 
BRANCH  24  25
ATOM     25  C   UNL d   1     -20.846 -15.411 -10.845  0.00  0.00    -0.015 C 
ATOM     26  C   UNL d   1     -20.107 -16.066 -10.692  0.00  0.00     0.010 C 
BRANCH  25  27
ATOM     27  C   UNL d   1     -21.096 -15.145 -11.775  0.00  0.00    -0.019 C 
ATOM     28  C   UNL d   1     -21.913 -15.532 -12.203  0.00  0.00     0.010 C 
ATOM     29  C   UNL d   1     -20.529 -14.492 -12.278  0.00  0.00     0.010 C 
ENDBRANCH  25  27
ENDBRANCH  24  25
ENDBRANCH  23  24
ENDBRANCH  21  23
ENDBRANCH   6  21
TORSDOF 5
ENDMDL
MODEL 4
REMARK VINA RESULT:    -7.907      3.381      4.756
REMARK INTER + INTRA:           0.163
REMARK INTER:                 -10.287
REMARK INTRA:                  10.450
REMARK UNBOUND:                10.381
REMARK  5 active torsions:
REMARK  status: ('A' for Active; 'I' for Inactive)
REMARK    1  A    between atoms: C_6  and  C_13 
REMARK    2  A    between atoms: C_13  and  C_19 
REMARK    3  A    between atoms: C_19  and  C_24 
REMARK    4  A    between atoms: C_24  and  C_25 
REMARK    5  A    between atoms: C_25  and  C_26 
ROOT
ATOM      1  O   UNL d   1     -22.363 -21.800  -9.307  0.00  0.00    -0.293 OA
ATOM      2  C   UNL d   1     -21.174 -15.724  -9.028  0.00  0.00    -0.036 A 
ATOM      3  C   UNL d   1     -21.023 -16.217  -9.885  0.00  0.00    -0.002 A 
ATOM      4  C   UNL d   1     -21.213 -17.197  -9.938  0.00  0.00    -0.004 A 
ATOM      5  C   UNL d   1     -21.553 -17.685  -9.134  0.00  0.00     0.002 A 
ATOM      6  C   UNL d   1     -20.931 -14.772  -9.177  0.00  0.00    -0.002 A 
ATOM      7  C   UNL d   1     -21.515 -16.212  -8.224  0.00  0.00     0.010 A 
ATOM      8  C   UNL d   1     -20.688 -15.565 -10.556  0.00  0.00     0.006 A 
ATOM      9  C   UNL d   1     -21.755 -18.706  -9.174  0.00  0.00    -0.016 A 
ATOM     10  C   UNL d   1     -21.704 -17.192  -8.277  0.00  0.00     0.007 A 
ATOM     11  C   UNL d   1     -20.631 -14.673 -10.119  0.00  0.00     0.006 A 
ATOM     12  C   UNL d   1     -21.051 -17.697 -10.838  0.00  0.00     0.010 A 
ATOM     13  C   UNL d   1     -21.326 -15.231  -8.171  0.00  0.00     0.016 C 
ATOM     14  C   UNL d   1     -21.600 -19.226 -10.064  0.00  0.00    -0.068 A 
ATOM     15  C   UNL d   1     -21.246 -18.718 -10.901  0.00  0.00     0.035 A 
ATOM     16  C   UNL d   1     -22.124 -19.214  -8.289  0.00  0.00     0.022 A 
ATOM     17  C   UNL d   1     -21.904 -18.207  -8.321  0.00  0.00     0.020 C 
ATOM     18  C   UNL d   1     -22.334 -20.278  -8.331  0.00  0.00     0.084 A 
ATOM     19  C   UNL d   1     -21.803 -20.290 -10.130  0.00  0.00     0.053 A 
ATOM     20  C   UNL d   1     -22.173 -20.819  -9.257  0.00  0.00     0.149 A 
ENDROOT
BRANCH   6  21
ATOM     21  C   UNL d   1     -20.979 -14.040  -8.497  0.00  0.00    -0.014 C 
ATOM     22  C   UNL d   1     -20.274 -13.966  -7.792  0.00  0.00     0.010 C 
BRANCH  21  23
ATOM     23  C   UNL d   1     -21.733 -13.383  -8.522  0.00  0.00     0.005 C 
BRANCH  23  24
ATOM     24  C   UNL d   1     -21.634 -12.492  -8.079  0.00  0.00     0.005 C 
BRANCH  24  25
ATOM     25  C   UNL d   1     -22.395 -11.842  -8.087  0.00  0.00    -0.015 C 
ATOM     26  C   UNL d   1     -23.033 -11.830  -8.857  0.00  0.00     0.010 C 
BRANCH  25  27
ATOM     27  C   UNL d   1     -22.517 -11.207  -7.326  0.00  0.00    -0.019 C 
ATOM     28  C   UNL d   1     -23.405 -11.136  -6.871  0.00  0.00     0.010 C 
ATOM     29  C   UNL d   1     -21.751 -10.640  -7.019  0.00  0.00     0.010 C 
ENDBRANCH  25  27
ENDBRANCH  24  25
ENDBRANCH  23  24
ENDBRANCH  21  23
ENDBRANCH   6  21
TORSDOF 5
ENDMDL
MODEL 5
REMARK VINA RESULT:    -7.849     15.188     17.215
REMARK INTER + INTRA:           0.238
REMARK INTER:                 -10.082
REMARK INTRA:                  10.320
REMARK UNBOUND:                10.381
REMARK  5 active torsions:
REMARK  status: ('A' for Active; 'I' for Inactive)
REMARK    1  A    between atoms: C_6  and  C_13 
REMARK    2  A    between atoms: C_13  and  C_19 
REMARK    3  A    between atoms: C_19  and  C_24 
REMARK    4  A    between atoms: C_24  and  C_25 
REMARK    5  A    between atoms: C_25  and  C_26 
ROOT
ATOM      1  O   UNL d   1      -5.784 -21.317   3.465  0.00  0.00    -0.293 OA
ATOM      2  C   UNL d   1     -11.154 -18.335   2.644  0.00  0.00    -0.036 A 
ATOM      3  C   UNL d   1     -10.613 -18.158   3.466  0.00  0.00    -0.002 A 
ATOM      4  C   UNL d   1      -9.745 -18.635   3.606  0.00  0.00    -0.004 A 
ATOM      5  C   UNL d   1      -9.419 -19.289   2.924  0.00  0.00     0.002 A 
ATOM      6  C   UNL d   1     -11.971 -17.771   2.690  0.00  0.00    -0.002 A 
ATOM      7  C   UNL d   1     -10.828 -18.990   1.962  0.00  0.00     0.010 A 
ATOM      8  C   UNL d   1     -11.099 -17.485   4.013  0.00  0.00     0.006 A 
ATOM      9  C   UNL d   1      -8.517 -19.794   3.056  0.00  0.00    -0.016 A 
ATOM     10  C   UNL d   1      -9.960 -19.467   2.102  0.00  0.00     0.007 A 
ATOM     11  C   UNL d   1     -11.938 -17.247   3.534  0.00  0.00     0.006 A 
ATOM     12  C   UNL d   1      -9.192 -18.439   4.467  0.00  0.00     0.010 A 
ATOM     13  C   UNL d   1     -11.696 -18.513   1.822  0.00  0.00     0.016 C 
ATOM     14  C   UNL d   1      -7.947 -19.614   3.909  0.00  0.00    -0.068 A 
ATOM     15  C   UNL d   1      -8.287 -18.932   4.620  0.00  0.00     0.035 A 
ATOM     16  C   UNL d   1      -8.184 -20.500   2.302  0.00  0.00     0.022 A 
ATOM     17  C   UNL d   1      -9.064 -19.966   2.237  0.00  0.00     0.020 C 
ATOM     18  C   UNL d   1      -7.244 -21.026   2.439  0.00  0.00     0.084 A 
ATOM     19  C   UNL d   1      -7.005 -20.127   4.069  0.00  0.00     0.053 A 
ATOM     20  C   UNL d   1      -6.651 -20.838   3.328  0.00  0.00     0.149 A 
ENDROOT
BRANCH   6  21
ATOM     21  C   UNL d   1     -12.700 -17.737   2.006  0.00  0.00    -0.014 C 
ATOM     22  C   UNL d   1     -12.589 -17.178   1.185  0.00  0.00     0.010 C 
BRANCH  21  23
ATOM     23  C   UNL d   1     -13.540 -18.262   2.145  0.00  0.00     0.005 C 
BRANCH  23  24
ATOM     24  C   UNL d   1     -14.415 -17.896   1.826  0.00  0.00     0.005 C 
BRANCH  24  25
ATOM     25  C   UNL d   1     -15.254 -18.427   1.952  0.00  0.00    -0.015 C 
ATOM     26  C   UNL d   1     -15.256 -19.220   2.562  0.00  0.00     0.010 C 
BRANCH  25  27
ATOM     27  C   UNL d   1     -16.088 -18.165   1.469  0.00  0.00    -0.019 C 
ATOM     28  C   UNL d   1     -16.515 -18.802   0.827  0.00  0.00     0.010 C 
ATOM     29  C   UNL d   1     -16.497 -17.265   1.627  0.00  0.00     0.010 C 
ENDBRANCH  25  27
ENDBRANCH  24  25
ENDBRANCH  23  24
ENDBRANCH  21  23
ENDBRANCH   6  21
TORSDOF 5
ENDMDL
