MODEL 1
REMARK VINA RESULT:    -7.129      0.000      0.000
REMARK INTER + INTRA:          -6.959
REMARK INTER:                  -8.000
REMARK INTRA:                   1.041
REMARK UNBOUND:                 1.004
REMARK  3 active torsions:
REMARK  status: ('A' for Active; 'I' for Inactive)
REMARK    1  A    between atoms: O_2  and  C_10 
REMARK    2  A    between atoms: O_4  and  C_13 
REMARK    3  A    between atoms: C_7  and  C_9 
ROOT
ATOM      1  O   UNL d   1      -4.409 -26.923 -12.696  0.00  0.00    -0.309 OA
ATOM      2  O   UNL d   1      -1.522 -27.681 -12.390  0.00  0.00    -0.287 OA
ATOM      3  C   UNL d   1      -2.730 -26.514 -12.813  0.00  0.00     0.081 A 
ATOM      4  C   UNL d   1      -3.692 -26.261 -12.915  0.00  0.00     0.095 A 
ATOM      5  C   UNL d   1      -4.163 -27.838 -12.374  0.00  0.00     0.090 A 
ATOM      6  C   UNL d   1      -2.484 -27.428 -12.492  0.00  0.00     0.190 A 
ATOM      7  C   UNL d   1      -1.973 -25.835 -13.038  0.00  0.00     0.085 A 
ATOM      8  C   UNL d   1      -3.201 -28.090 -12.272  0.00  0.00     0.094 A 
ATOM      9  C   UNL d   1      -3.964 -25.312 -13.249  0.00  0.00     0.075 A 
ATOM     10  C   UNL d   1      -3.222 -24.618 -13.480  0.00  0.00     0.071 A 
ATOM     11  C   UNL d   1      -2.221 -24.881 -13.374  0.00  0.00     0.074 A 
ENDROOT
BRANCH   5  12
ATOM     12  C   UNL d   1      -4.880 -28.499 -12.155  0.00  0.00    -0.002 A 
ATOM     13  C   UNL d   1      -5.076 -29.252 -12.784  0.00  0.00     0.014 A 
ATOM     14  C   UNL d   1      -5.793 -29.913 -12.564  0.00  0.00     0.001 A 
ATOM     15  C   UNL d   1      -6.314 -29.823 -11.715  0.00  0.00     0.000 A 
ATOM     16  C   UNL d   1      -6.118 -29.071 -11.086  0.00  0.00     0.001 A 
ATOM     17  C   UNL d   1      -5.401 -28.409 -11.306  0.00  0.00     0.014 A 
ENDBRANCH   5  12
BRANCH   7  18
ATOM     18  O   UNL d   1      -1.014 -26.099 -12.932  0.00  0.00    -0.360 OA
ATOM     19  H   UNL d   1      -0.697 -26.315 -13.419  0.00  0.00     0.217 HD
ENDBRANCH   7  18
BRANCH  10  20
ATOM     20  O   UNL d   1      -3.472 -23.704 -13.802  0.00  0.00    -0.361 OA
ATOM     21  H   UNL d   1      -3.171 -23.207 -13.586  0.00  0.00     0.217 HD
ENDBRANCH  10  20
TORSDOF 3
ENDMDL
MODEL 2
REMARK VINA RESULT:    -6.685      1.079      2.337
REMARK INTER + INTRA:          -6.462
REMARK INTER:                  -7.480
REMARK INTRA:                   1.018
REMARK UNBOUND:                 1.004
REMARK  3 active torsions:
REMARK  status: ('A' for Active; 'I' for Inactive)
REMARK    1  A    between atoms: O_2  and  C_10 
REMARK    2  A    between atoms: O_4  and  C_13 
REMARK    3  A    between atoms: C_7  and  C_9 
ROOT
ATOM      1  O   UNL d   1      -2.731 -27.522 -12.748  0.00  0.00    -0.309 OA
ATOM      2  O   UNL d   1      -3.508 -24.654 -13.157  0.00  0.00    -0.287 OA
ATOM      3  C   UNL d   1      -2.289 -25.883 -13.090  0.00  0.00     0.081 A 
ATOM      4  C   UNL d   1      -2.030 -26.839 -12.954  0.00  0.00     0.095 A 
ATOM      5  C   UNL d   1      -3.690 -27.250 -12.679  0.00  0.00     0.090 A 
ATOM      6  C   UNL d   1      -3.249 -25.610 -13.021  0.00  0.00     0.190 A 
ATOM      7  C   UNL d   1      -1.571 -25.160 -13.304  0.00  0.00     0.085 A 
ATOM      8  C   UNL d   1      -3.949 -26.293 -12.816  0.00  0.00     0.094 A 
ATOM      9  C   UNL d   1      -1.035 -27.139 -13.022  0.00  0.00     0.075 A 
ATOM     10  C   UNL d   1      -0.300 -26.433 -13.236  0.00  0.00     0.071 A 
ATOM     11  C   UNL d   1      -0.569 -25.437 -13.378  0.00  0.00     0.074 A 
ENDROOT
BRANCH   5  12
ATOM     12  C   UNL d   1      -4.391 -27.933 -12.474  0.00  0.00    -0.002 A 
ATOM     13  C   UNL d   1      -4.772 -27.997 -11.552  0.00  0.00     0.014 A 
ATOM     14  C   UNL d   1      -5.473 -28.680 -11.346  0.00  0.00     0.001 A 
ATOM     15  C   UNL d   1      -5.792 -29.300 -12.063  0.00  0.00     0.000 A 
ATOM     16  C   UNL d   1      -5.411 -29.236 -12.986  0.00  0.00     0.001 A 
ATOM     17  C   UNL d   1      -4.711 -28.552 -13.191  0.00  0.00     0.014 A 
ENDBRANCH   5  12
BRANCH   7  18
ATOM     18  O   UNL d   1      -1.841 -24.207 -13.439  0.00  0.00    -0.360 OA
ATOM     19  H   UNL d   1      -1.714 -23.785 -13.004  0.00  0.00     0.217 HD
ENDBRANCH   7  18
BRANCH  10  20
ATOM     20  O   UNL d   1       0.659 -26.710 -13.304  0.00  0.00    -0.361 OA
ATOM     21  H   UNL d   1       0.851 -27.231 -13.029  0.00  0.00     0.217 HD
ENDBRANCH  10  20
TORSDOF 3
ENDMDL
MODEL 3
REMARK VINA RESULT:    -6.622     16.614     17.526
REMARK INTER + INTRA:          -6.393
REMARK INTER:                  -7.489
REMARK INTRA:                   1.096
REMARK UNBOUND:                 1.004
REMARK  3 active torsions:
REMARK  status: ('A' for Active; 'I' for Inactive)
REMARK    1  A    between atoms: O_2  and  C_10 
REMARK    2  A    between atoms: O_4  and  C_13 
REMARK    3  A    between atoms: C_7  and  C_9 
ROOT
ATOM      1  O   UNL d   1      -8.270 -21.165   2.554  0.00  0.00    -0.309 OA
ATOM      2  O   UNL d   1      -6.200 -19.300   3.665  0.00  0.00    -0.287 OA
ATOM      3  C   UNL d   1      -6.656 -20.876   3.111  0.00  0.00     0.081 A 
ATOM      4  C   UNL d   1      -7.346 -21.498   2.741  0.00  0.00     0.095 A 
ATOM      5  C   UNL d   1      -8.504 -20.210   2.738  0.00  0.00     0.090 A 
ATOM      6  C   UNL d   1      -6.890 -19.922   3.295  0.00  0.00     0.190 A 
ATOM      7  C   UNL d   1      -5.690 -21.209   3.311  0.00  0.00     0.085 A 
ATOM      8  C   UNL d   1      -7.814 -19.589   3.108  0.00  0.00     0.094 A 
ATOM      9  C   UNL d   1      -7.118 -22.495   2.544  0.00  0.00     0.075 A 
ATOM     10  C   UNL d   1      -6.157 -22.849   2.736  0.00  0.00     0.071 A 
ATOM     11  C   UNL d   1      -5.438 -22.202   3.122  0.00  0.00     0.074 A 
ENDROOT
BRANCH   5  12
ATOM     12  C   UNL d   1      -9.429 -19.877   2.551  0.00  0.00    -0.002 A 
ATOM     13  C   UNL d   1      -9.986 -19.506   3.294  0.00  0.00     0.014 A 
ATOM     14  C   UNL d   1     -10.910 -19.173   3.108  0.00  0.00     0.001 A 
ATOM     15  C   UNL d   1     -11.277 -19.211   2.178  0.00  0.00     0.000 A 
ATOM     16  C   UNL d   1     -10.720 -19.583   1.435  0.00  0.00     0.001 A 
ATOM     17  C   UNL d   1      -9.796 -19.916   1.622  0.00  0.00     0.014 A 
ENDBRANCH   5  12
BRANCH   7  18
ATOM     18  O   UNL d   1      -5.007 -20.579   3.681  0.00  0.00    -0.360 OA
ATOM     19  H   UNL d   1      -5.022 -20.423   4.281  0.00  0.00     0.217 HD
ENDBRANCH   7  18
BRANCH  10  20
ATOM     20  O   UNL d   1      -5.927 -23.805   2.551  0.00  0.00    -0.361 OA
ATOM     21  H   UNL d   1      -6.103 -24.248   2.947  0.00  0.00     0.217 HD
ENDBRANCH  10  20
TORSDOF 3
ENDMDL
MODEL 4
REMARK VINA RESULT:    -6.599      2.283      4.908
REMARK INTER + INTRA:          -6.367
REMARK INTER:                  -7.796
REMARK INTRA:                   1.429
REMARK UNBOUND:                 1.004
REMARK  3 active torsions:
REMARK  status: ('A' for Active; 'I' for Inactive)
REMARK    1  A    between atoms: O_2  and  C_10 
REMARK    2  A    between atoms: O_4  and  C_13 
REMARK    3  A    between atoms: C_7  and  C_9 
ROOT
ATOM      1  O   UNL d   1      -0.899 -25.685 -13.290  0.00  0.00    -0.309 OA
ATOM      2  O   UNL d   1      -2.108 -28.322 -12.522  0.00  0.00    -0.287 OA
ATOM      3  C   UNL d   1      -2.291 -26.644 -12.910  0.00  0.00     0.081 A 
ATOM      4  C   UNL d   1      -1.888 -25.765 -13.166  0.00  0.00     0.095 A 
ATOM      5  C   UNL d   1      -0.313 -26.485 -13.159  0.00  0.00     0.090 A 
ATOM      6  C   UNL d   1      -1.705 -27.443 -12.778  0.00  0.00     0.190 A 
ATOM      7  C   UNL d   1      -3.320 -26.741 -12.777  0.00  0.00     0.085 A 
ATOM      8  C   UNL d   1      -0.716 -27.364 -12.903  0.00  0.00     0.094 A 
ATOM      9  C   UNL d   1      -2.486 -24.923 -13.306  0.00  0.00     0.075 A 
ATOM     10  C   UNL d   1      -3.517 -24.998 -13.178  0.00  0.00     0.071 A 
ATOM     11  C   UNL d   1      -3.936 -25.913 -12.912  0.00  0.00     0.074 A 
ENDROOT
BRANCH   5  12
ATOM     12  C   UNL d   1       0.676 -26.406 -13.283  0.00  0.00    -0.002 A 
ATOM     13  C   UNL d   1       1.277 -27.154 -13.002  0.00  0.00     0.014 A 
ATOM     14  C   UNL d   1       2.266 -27.075 -13.126  0.00  0.00     0.001 A 
ATOM     15  C   UNL d   1       2.654 -26.247 -13.532  0.00  0.00     0.000 A 
ATOM     16  C   UNL d   1       2.053 -25.499 -13.813  0.00  0.00     0.001 A 
ATOM     17  C   UNL d   1       1.064 -25.578 -13.688  0.00  0.00     0.014 A 
ENDBRANCH   5  12
BRANCH   7  18
ATOM     18  O   UNL d   1      -3.712 -27.625 -12.521  0.00  0.00    -0.360 OA
ATOM     19  H   UNL d   1      -3.615 -28.121 -12.878  0.00  0.00     0.217 HD
ENDBRANCH   7  18
BRANCH  10  20
ATOM     20  O   UNL d   1      -4.100 -24.196 -13.311  0.00  0.00    -0.361 OA
ATOM     21  H   UNL d   1      -4.574 -24.220 -13.709  0.00  0.00     0.217 HD
ENDBRANCH  10  20
TORSDOF 3
ENDMDL
MODEL 5
REMARK VINA RESULT:    -6.588      1.864      4.604
REMARK INTER + INTRA:          -6.354
REMARK INTER:                  -7.811
REMARK INTRA:                   1.457
REMARK UNBOUND:                 1.004
REMARK  3 active torsions:
REMARK  status: ('A' for Active; 'I' for Inactive)
REMARK    1  A    between atoms: O_2  and  C_10 
REMARK    2  A    between atoms: O_4  and  C_13 
REMARK    3  A    between atoms: C_7  and  C_9 
ROOT
ATOM      1  O   UNL d   1      -2.030 -27.207 -11.878  0.00  0.00    -0.309 OA
ATOM      2  O   UNL d   1      -4.519 -28.744 -11.213  0.00  0.00    -0.287 OA
ATOM      3  C   UNL d   1      -2.794 -28.593 -11.175  0.00  0.00     0.081 A 
ATOM      4  C   UNL d   1      -1.964 -28.081 -11.397  0.00  0.00     0.095 A 
ATOM      5  C   UNL d   1      -2.925 -26.845 -12.138  0.00  0.00     0.090 A 
ATOM      6  C   UNL d   1      -3.689 -28.232 -11.435  0.00  0.00     0.190 A 
ATOM      7  C   UNL d   1      -2.741 -29.505 -10.675  0.00  0.00     0.085 A 
ATOM      8  C   UNL d   1      -3.755 -27.358 -11.916  0.00  0.00     0.094 A 
ATOM      9  C   UNL d   1      -1.024 -28.445 -11.133  0.00  0.00     0.075 A 
ATOM     10  C   UNL d   1      -0.948 -29.355 -10.632  0.00  0.00     0.071 A 
ATOM     11  C   UNL d   1      -1.812 -29.888 -10.401  0.00  0.00     0.074 A 
ENDROOT
BRANCH   5  12
ATOM     12  C   UNL d   1      -2.991 -25.971 -12.619  0.00  0.00    -0.002 A 
ATOM     13  C   UNL d   1      -3.887 -25.605 -12.870  0.00  0.00     0.014 A 
ATOM     14  C   UNL d   1      -3.953 -24.731 -13.351  0.00  0.00     0.001 A 
ATOM     15  C   UNL d   1      -3.122 -24.223 -13.581  0.00  0.00     0.000 A 
ATOM     16  C   UNL d   1      -2.227 -24.589 -13.330  0.00  0.00     0.001 A 
ATOM     17  C   UNL d   1      -2.161 -25.463 -12.849  0.00  0.00     0.014 A 
ENDBRANCH   5  12
BRANCH   7  18
ATOM     18  O   UNL d   1      -3.577 -30.009 -10.458  0.00  0.00    -0.360 OA
ATOM     19  H   UNL d   1      -4.057 -29.715 -10.199  0.00  0.00     0.217 HD
ENDBRANCH   7  18
BRANCH  10  20
ATOM     20  O   UNL d   1      -0.050 -29.713 -10.374  0.00  0.00    -0.361 OA
ATOM     21  H   UNL d   1       0.417 -29.323 -10.260  0.00  0.00     0.217 HD
ENDBRANCH  10  20
TORSDOF 3
ENDMDL
