MODEL 1
REMARK VINA RESULT:    -4.928      0.000      0.000
REMARK INTER + INTRA:          -4.222
REMARK INTER:                  -5.934
REMARK INTRA:                   1.713
REMARK UNBOUND:                 1.715
REMARK  4 active torsions:
REMARK  status: ('A' for Active; 'I' for Inactive)
REMARK    1  A    between atoms: O_1  and  C_8 
REMARK    2  A    between atoms: O_2  and  C_7 
REMARK    3  A    between atoms: C_3  and  C_4 
REMARK    4  A    between atoms: C_4  and  C_10 
ROOT
ATOM      1  C   UNL d   1      -6.495 -14.453 -22.628  0.00  0.00    -0.052 A 
ATOM      2  C   UNL d   1      -6.997 -14.938 -23.343  0.00  0.00     0.046 A 
ATOM      3  C   UNL d   1      -5.941 -13.653 -22.861  0.00  0.00     0.010 A 
ATOM      4  C   UNL d   1      -6.946 -14.625 -24.291  0.00  0.00     0.099 A 
ATOM      5  C   UNL d   1      -6.391 -13.826 -24.524  0.00  0.00     0.101 A 
ATOM      6  C   UNL d   1      -5.889 -13.340 -23.809  0.00  0.00     0.040 A 
ENDROOT
BRANCH   1   7
ATOM      7  C   UNL d   1      -6.547 -14.766 -21.680  0.00  0.00     0.065 C 
BRANCH   7   8
ATOM      8  C   UNL d   1      -7.404 -14.684 -21.172  0.00  0.00    -0.032 C 
ATOM      9  C   UNL d   1      -7.442 -14.947 -20.208  0.00  0.00     0.007 C 
ENDBRANCH   7   8
ENDBRANCH   1   7
BRANCH   4  10
ATOM     10  O   UNL d   1      -7.448 -15.111 -25.006  0.00  0.00    -0.358 OA
ATOM     11  H   UNL d   1      -7.939 -14.845 -25.276  0.00  0.00     0.217 HD
ENDBRANCH   4  10
BRANCH   5  12
ATOM     12  O   UNL d   1      -6.340 -13.513 -25.472  0.00  0.00    -0.353 OA
ATOM     13  C   UNL d   1      -5.898 -12.642 -25.688  0.00  0.00     0.210 C 
ENDBRANCH   5  12
TORSDOF 4
ENDMDL
MODEL 2
REMARK VINA RESULT:    -4.849     15.998     17.939
REMARK INTER + INTRA:          -4.127
REMARK INTER:                  -5.893
REMARK INTRA:                   1.766
REMARK UNBOUND:                 1.715
REMARK  4 active torsions:
REMARK  status: ('A' for Active; 'I' for Inactive)
REMARK    1  A    between atoms: O_1  and  C_8 
REMARK    2  A    between atoms: O_2  and  C_7 
REMARK    3  A    between atoms: C_3  and  C_4 
REMARK    4  A    between atoms: C_4  and  C_10 
ROOT
ATOM      1  C   UNL d   1      -3.226 -26.625 -12.429  0.00  0.00    -0.052 A 
ATOM      2  C   UNL d   1      -2.718 -26.916 -11.618  0.00  0.00     0.046 A 
ATOM      3  C   UNL d   1      -4.019 -27.150 -12.738  0.00  0.00     0.010 A 
ATOM      4  C   UNL d   1      -3.003 -27.733 -11.117  0.00  0.00     0.099 A 
ATOM      5  C   UNL d   1      -3.796 -28.259 -11.426  0.00  0.00     0.101 A 
ATOM      6  C   UNL d   1      -4.304 -27.967 -12.236  0.00  0.00     0.040 A 
ENDROOT
BRANCH   1   7
ATOM      7  C   UNL d   1      -2.942 -25.808 -12.930  0.00  0.00     0.065 C 
BRANCH   7   8
ATOM      8  C   UNL d   1      -3.560 -25.025 -13.003  0.00  0.00    -0.032 C 
ATOM      9  C   UNL d   1      -3.299 -24.231 -13.551  0.00  0.00     0.007 C 
ENDBRANCH   7   8
ENDBRANCH   1   7
BRANCH   4  10
ATOM     10  O   UNL d   1      -2.494 -28.025 -10.307  0.00  0.00    -0.358 OA
ATOM     11  H   UNL d   1      -2.673 -27.835  -9.744  0.00  0.00     0.217 HD
ENDBRANCH   4  10
BRANCH   5  12
ATOM     12  O   UNL d   1      -4.080 -29.076 -10.924  0.00  0.00    -0.353 OA
ATOM     13  C   UNL d   1      -4.672 -29.751 -11.364  0.00  0.00     0.210 C 
ENDBRANCH   5  12
TORSDOF 4
ENDMDL
MODEL 3
REMARK VINA RESULT:    -4.823     28.982     30.443
REMARK INTER + INTRA:          -4.095
REMARK INTER:                  -5.862
REMARK INTRA:                   1.767
REMARK UNBOUND:                 1.715
REMARK  4 active torsions:
REMARK  status: ('A' for Active; 'I' for Inactive)
REMARK    1  A    between atoms: O_1  and  C_8 
REMARK    2  A    between atoms: O_2  and  C_7 
REMARK    3  A    between atoms: C_3  and  C_4 
REMARK    4  A    between atoms: C_4  and  C_10 
ROOT
ATOM      1  C   UNL d   1     -11.250  -1.457   3.254  0.00  0.00    -0.052 A 
ATOM      2  C   UNL d   1     -11.087  -2.443   3.206  0.00  0.00     0.046 A 
ATOM      3  C   UNL d   1     -11.632  -1.053   4.085  0.00  0.00     0.010 A 
ATOM      4  C   UNL d   1     -11.306  -3.024   3.989  0.00  0.00     0.099 A 
ATOM      5  C   UNL d   1     -11.689  -2.620   4.820  0.00  0.00     0.101 A 
ATOM      6  C   UNL d   1     -11.851  -1.635   4.868  0.00  0.00     0.040 A 
ENDROOT
BRANCH   1   7
ATOM      7  C   UNL d   1     -11.030  -0.875   2.471  0.00  0.00     0.065 C 
BRANCH   7   8
ATOM      8  C   UNL d   1     -11.757  -0.374   2.001  0.00  0.00    -0.032 C 
ATOM      9  C   UNL d   1     -11.584   0.035   1.105  0.00  0.00     0.007 C 
ENDBRANCH   7   8
ENDBRANCH   1   7
BRANCH   4  10
ATOM     10  O   UNL d   1     -11.144  -4.010   3.941  0.00  0.00    -0.358 OA
ATOM     11  H   UNL d   1     -11.504  -4.366   3.584  0.00  0.00     0.217 HD
ENDBRANCH   4  10
BRANCH   5  12
ATOM     12  O   UNL d   1     -11.908  -3.202   5.603  0.00  0.00    -0.353 OA
ATOM     13  C   UNL d   1     -11.963  -2.807   6.520  0.00  0.00     0.210 C 
ENDBRANCH   5  12
TORSDOF 4
ENDMDL
MODEL 4
REMARK VINA RESULT:    -4.733     28.456     29.296
REMARK INTER + INTRA:          -3.986
REMARK INTER:                  -5.698
REMARK INTRA:                   1.711
REMARK UNBOUND:                 1.715
REMARK  4 active torsions:
REMARK  status: ('A' for Active; 'I' for Inactive)
REMARK    1  A    between atoms: O_1  and  C_8 
REMARK    2  A    between atoms: O_2  and  C_7 
REMARK    3  A    between atoms: C_3  and  C_4 
REMARK    4  A    between atoms: C_4  and  C_10 
ROOT
ATOM      1  C   UNL d   1     -11.444  -0.475   2.317  0.00  0.00    -0.052 A 
ATOM      2  C   UNL d   1     -11.117  -0.336   1.382  0.00  0.00     0.046 A 
ATOM      3  C   UNL d   1     -12.330  -0.106   2.597  0.00  0.00     0.010 A 
ATOM      4  C   UNL d   1     -11.676   0.174   0.728  0.00  0.00     0.099 A 
ATOM      5  C   UNL d   1     -12.562   0.544   1.009  0.00  0.00     0.101 A 
ATOM      6  C   UNL d   1     -12.889   0.404   1.943  0.00  0.00     0.040 A 
ENDROOT
BRANCH   1   7
ATOM      7  C   UNL d   1     -10.885  -0.985   2.971  0.00  0.00     0.065 C 
BRANCH   7   8
ATOM      8  C   UNL d   1     -11.111  -1.934   3.189  0.00  0.00    -0.032 C 
ATOM      9  C   UNL d   1     -10.602  -2.419   3.900  0.00  0.00     0.007 C 
ENDBRANCH   7   8
ENDBRANCH   1   7
BRANCH   4  10
ATOM     10  O   UNL d   1     -11.349   0.314  -0.207  0.00  0.00    -0.358 OA
ATOM     11  H   UNL d   1     -10.898   0.724  -0.319  0.00  0.00     0.217 HD
ENDBRANCH   4  10
BRANCH   5  12
ATOM     12  O   UNL d   1     -13.121   1.054   0.354  0.00  0.00    -0.353 OA
ATOM     13  C   UNL d   1     -14.067   1.287   0.580  0.00  0.00     0.210 C 
ENDBRANCH   5  12
TORSDOF 4
ENDMDL
MODEL 5
REMARK VINA RESULT:    -4.641     26.135     26.387
REMARK INTER + INTRA:          -3.876
REMARK INTER:                  -5.606
REMARK INTRA:                   1.730
REMARK UNBOUND:                 1.715
REMARK  4 active torsions:
REMARK  status: ('A' for Active; 'I' for Inactive)
REMARK    1  A    between atoms: O_1  and  C_8 
REMARK    2  A    between atoms: O_2  and  C_7 
REMARK    3  A    between atoms: C_3  and  C_4 
REMARK    4  A    between atoms: C_4  and  C_10 
ROOT
ATOM      1  C   UNL d   1     -10.343 -19.005   2.382  0.00  0.00    -0.052 A 
ATOM      2  C   UNL d   1     -10.188 -18.038   2.585  0.00  0.00     0.046 A 
ATOM      3  C   UNL d   1     -11.219 -19.302   2.003  0.00  0.00     0.010 A 
ATOM      4  C   UNL d   1     -10.910 -17.368   2.409  0.00  0.00     0.099 A 
ATOM      5  C   UNL d   1     -11.786 -17.666   2.030  0.00  0.00     0.101 A 
ATOM      6  C   UNL d   1     -11.941 -18.633   1.827  0.00  0.00     0.040 A 
ENDROOT
BRANCH   1   7
ATOM      7  C   UNL d   1      -9.621 -19.674   2.559  0.00  0.00     0.065 C 
BRANCH   7   8
ATOM      8  C   UNL d   1      -8.781 -19.658   2.016  0.00  0.00    -0.032 C 
ATOM      9  C   UNL d   1      -8.017 -20.255   2.261  0.00  0.00     0.007 C 
ENDBRANCH   7   8
ENDBRANCH   1   7
BRANCH   4  10
ATOM     10  O   UNL d   1     -10.755 -16.401   2.612  0.00  0.00    -0.358 OA
ATOM     11  H   UNL d   1     -10.185 -16.162   2.567  0.00  0.00     0.217 HD
ENDBRANCH   4  10
BRANCH   5  12
ATOM     12  O   UNL d   1     -12.508 -16.996   1.854  0.00  0.00    -0.353 OA
ATOM     13  C   UNL d   1     -13.438 -17.305   1.657  0.00  0.00     0.210 C 
ENDBRANCH   5  12
TORSDOF 4
ENDMDL
