MODEL 1
REMARK VINA RESULT:    -8.680      0.000      0.000
REMARK INTER + INTRA:          -8.315
REMARK INTER:                 -10.170
REMARK INTRA:                   1.855
REMARK UNBOUND:                 2.141
REMARK  5 active torsions:
REMARK  status: ('A' for Active; 'I' for Inactive)
REMARK    1  A    between atoms: O_2  and  C_13 
REMARK    2  A    between atoms: O_3  and  C_19 
REMARK    3  A    between atoms: O_5  and  C_17 
REMARK    4  A    between atoms: O_6  and  C_21 
REMARK    5  A    between atoms: C_8  and  C_10 
ROOT
ATOM      1  O   UNL d   1      28.483   7.396  25.473  0.00  0.00    -0.309 OA
ATOM      2  O   UNL d   1      27.986   8.641  22.789  0.00  0.00    -0.287 OA
ATOM      3  C   UNL d   1      29.059   8.282  24.100  0.00  0.00     0.081 A 
ATOM      4  C   UNL d   1      27.576   7.340  25.056  0.00  0.00     0.090 A 
ATOM      5  C   UNL d   1      29.225   7.867  24.995  0.00  0.00     0.095 A 
ATOM      6  C   UNL d   1      28.152   8.226  23.684  0.00  0.00     0.190 A 
ATOM      7  C   UNL d   1      27.410   7.755  24.162  0.00  0.00     0.094 A 
ATOM      8  C   UNL d   1      29.821   8.776  23.591  0.00  0.00     0.085 A 
ATOM      9  C   UNL d   1      30.164   7.917  25.442  0.00  0.00     0.075 A 
ATOM     10  C   UNL d   1      30.942   8.406  24.950  0.00  0.00     0.071 A 
ATOM     11  C   UNL d   1      30.769   8.838  24.019  0.00  0.00     0.074 A 
ENDROOT
BRANCH   4  12
ATOM     12  C   UNL d   1      26.835   6.869  25.534  0.00  0.00     0.001 A 
ATOM     13  C   UNL d   1      26.535   5.966  25.225  0.00  0.00     0.054 A 
ATOM     14  C   UNL d   1      25.793   5.495  25.703  0.00  0.00     0.102 A 
ATOM     15  C   UNL d   1      25.352   5.926  26.490  0.00  0.00     0.099 A 
ATOM     16  C   UNL d   1      25.652   6.829  26.798  0.00  0.00     0.040 A 
ATOM     17  C   UNL d   1      26.393   7.300  26.321  0.00  0.00     0.017 A 
BRANCH  14  18
ATOM     18  O   UNL d   1      25.494   4.592  25.394  0.00  0.00    -0.353 OA
ATOM     19  C   UNL d   1      25.689   4.293  24.460  0.00  0.00     0.210 C 
ENDBRANCH  14  18
BRANCH  15  20
ATOM     20  O   UNL d   1      24.611   5.455  26.967  0.00  0.00    -0.358 OA
ATOM     21  H   UNL d   1      24.692   5.261  27.551  0.00  0.00     0.217 HD
ENDBRANCH  15  20
ENDBRANCH   4  12
BRANCH   8  22
ATOM     22  O   UNL d   1      29.644   9.187  22.697  0.00  0.00    -0.360 OA
ATOM     23  H   UNL d   1      29.417   9.763  22.661  0.00  0.00     0.217 HD
ENDBRANCH   8  22
BRANCH  10  24
ATOM     24  O   UNL d   1      31.848   8.460  25.371  0.00  0.00    -0.361 OA
ATOM     25  H   UNL d   1      31.901   8.512  25.986  0.00  0.00     0.217 HD
ENDBRANCH  10  24
TORSDOF 5
ENDMDL
MODEL 2
REMARK VINA RESULT:    -8.635     23.545     24.881
REMARK INTER + INTRA:          -8.261
REMARK INTER:                 -10.141
REMARK INTRA:                   1.881
REMARK UNBOUND:                 2.141
REMARK  5 active torsions:
REMARK  status: ('A' for Active; 'I' for Inactive)
REMARK    1  A    between atoms: O_2  and  C_13 
REMARK    2  A    between atoms: O_3  and  C_19 
REMARK    3  A    between atoms: O_5  and  C_17 
REMARK    4  A    between atoms: O_6  and  C_21 
REMARK    5  A    between atoms: C_8  and  C_10 
ROOT
ATOM      1  O   UNL d   1      18.961  28.756  16.268  0.00  0.00    -0.309 OA
ATOM      2  O   UNL d   1      17.933  26.845  18.339  0.00  0.00    -0.287 OA
ATOM      3  C   UNL d   1      18.812  28.279  17.927  0.00  0.00     0.081 A 
ATOM      4  C   UNL d   1      18.425  27.959  15.991  0.00  0.00     0.090 A 
ATOM      5  C   UNL d   1      19.154  28.916  17.236  0.00  0.00     0.095 A 
ATOM      6  C   UNL d   1      18.276  27.482  17.649  0.00  0.00     0.190 A 
ATOM      7  C   UNL d   1      18.082  27.322  16.681  0.00  0.00     0.094 A 
ATOM      8  C   UNL d   1      19.005  28.433  18.938  0.00  0.00     0.085 A 
ATOM      9  C   UNL d   1      19.714  29.751  17.510  0.00  0.00     0.075 A 
ATOM     10  C   UNL d   1      19.920  29.924  18.516  0.00  0.00     0.071 A 
ATOM     11  C   UNL d   1      19.563  29.261  19.235  0.00  0.00     0.074 A 
ENDROOT
BRANCH   4  12
ATOM     12  C   UNL d   1      18.232  27.799  15.023  0.00  0.00     0.001 A 
ATOM     13  C   UNL d   1      17.298  27.894  14.677  0.00  0.00     0.054 A 
ATOM     14  C   UNL d   1      17.105  27.734  13.709  0.00  0.00     0.102 A 
ATOM     15  C   UNL d   1      17.845  27.479  13.087  0.00  0.00     0.099 A 
ATOM     16  C   UNL d   1      18.779  27.384  13.433  0.00  0.00     0.040 A 
ATOM     17  C   UNL d   1      18.972  27.544  14.401  0.00  0.00     0.017 A 
BRANCH  14  18
ATOM     18  O   UNL d   1      16.172  27.829  13.363  0.00  0.00    -0.353 OA
ATOM     19  C   UNL d   1      15.399  27.806  13.997  0.00  0.00     0.210 C 
ENDBRANCH  14  18
BRANCH  15  20
ATOM     20  O   UNL d   1      17.652  27.319  12.119  0.00  0.00    -0.358 OA
ATOM     21  H   UNL d   1      17.082  27.416  11.896  0.00  0.00     0.217 HD
ENDBRANCH  15  20
ENDBRANCH   4  12
BRANCH   8  22
ATOM     22  O   UNL d   1      18.657  27.789  19.620  0.00  0.00    -0.360 OA
ATOM     23  H   UNL d   1      19.049  27.511  20.011  0.00  0.00     0.217 HD
ENDBRANCH   8  22
BRANCH  10  24
ATOM     24  O   UNL d   1      20.456  30.723  18.790  0.00  0.00    -0.361 OA
ATOM     25  H   UNL d   1      20.630  31.140  18.365  0.00  0.00     0.217 HD
ENDBRANCH  10  24
TORSDOF 5
ENDMDL
MODEL 3
REMARK VINA RESULT:    -8.375      1.034      5.299
REMARK INTER + INTRA:          -7.948
REMARK INTER:                  -9.808
REMARK INTRA:                   1.860
REMARK UNBOUND:                 2.141
REMARK  5 active torsions:
REMARK  status: ('A' for Active; 'I' for Inactive)
REMARK    1  A    between atoms: O_2  and  C_13 
REMARK    2  A    between atoms: O_3  and  C_19 
REMARK    3  A    between atoms: O_5  and  C_17 
REMARK    4  A    between atoms: O_6  and  C_21 
REMARK    5  A    between atoms: C_8  and  C_10 
ROOT
ATOM      1  O   UNL d   1      27.132   6.091  24.536  0.00  0.00    -0.309 OA
ATOM      2  O   UNL d   1      25.821   7.381  26.906  0.00  0.00    -0.287 OA
ATOM      3  C   UNL d   1      26.052   6.000  25.887  0.00  0.00     0.081 A 
ATOM      4  C   UNL d   1      27.338   7.043  24.765  0.00  0.00     0.090 A 
ATOM      5  C   UNL d   1      26.489   5.570  25.097  0.00  0.00     0.095 A 
ATOM      6  C   UNL d   1      26.258   6.951  26.116  0.00  0.00     0.190 A 
ATOM      7  C   UNL d   1      26.900   7.473  25.555  0.00  0.00     0.094 A 
ATOM      8  C   UNL d   1      25.381   5.469  26.480  0.00  0.00     0.085 A 
ATOM      9  C   UNL d   1      26.285   4.579  24.845  0.00  0.00     0.075 A 
ATOM     10  C   UNL d   1      25.617   4.030  25.425  0.00  0.00     0.071 A 
ATOM     11  C   UNL d   1      25.162   4.477  26.248  0.00  0.00     0.074 A 
ENDROOT
BRANCH   4  12
ATOM     12  C   UNL d   1      27.980   7.564  24.204  0.00  0.00     0.001 A 
ATOM     13  C   UNL d   1      28.875   7.817  24.572  0.00  0.00     0.054 A 
ATOM     14  C   UNL d   1      29.518   8.339  24.011  0.00  0.00     0.102 A 
ATOM     15  C   UNL d   1      29.266   8.608  23.082  0.00  0.00     0.099 A 
ATOM     16  C   UNL d   1      28.371   8.355  22.713  0.00  0.00     0.040 A 
ATOM     17  C   UNL d   1      27.728   7.833  23.274  0.00  0.00     0.017 A 
BRANCH  14  18
ATOM     18  O   UNL d   1      30.412   8.591  24.380  0.00  0.00    -0.353 OA
ATOM     19  C   UNL d   1      30.712   8.225  25.261  0.00  0.00     0.210 C 
ENDBRANCH  14  18
BRANCH  15  20
ATOM     20  O   UNL d   1      29.909   9.129  22.520  0.00  0.00    -0.358 OA
ATOM     21  H   UNL d   1      30.511   9.137  22.666  0.00  0.00     0.217 HD
ENDBRANCH  15  20
ENDBRANCH   4  12
BRANCH   8  22
ATOM     22  O   UNL d   1      24.950   5.909  27.268  0.00  0.00    -0.360 OA
ATOM     23  H   UNL d   1      24.428   5.674  27.506  0.00  0.00     0.217 HD
ENDBRANCH   8  22
BRANCH  10  24
ATOM     24  O   UNL d   1      25.414   3.078  25.193  0.00  0.00    -0.361 OA
ATOM     25  H   UNL d   1      25.732   2.795  24.742  0.00  0.00     0.217 HD
ENDBRANCH  10  24
TORSDOF 5
ENDMDL
MODEL 4
REMARK VINA RESULT:    -8.083     23.639     25.154
REMARK INTER + INTRA:          -7.596
REMARK INTER:                  -9.466
REMARK INTRA:                   1.870
REMARK UNBOUND:                 2.141
REMARK  5 active torsions:
REMARK  status: ('A' for Active; 'I' for Inactive)
REMARK    1  A    between atoms: O_2  and  C_13 
REMARK    2  A    between atoms: O_3  and  C_19 
REMARK    3  A    between atoms: O_5  and  C_17 
REMARK    4  A    between atoms: O_6  and  C_21 
REMARK    5  A    between atoms: C_8  and  C_10 
ROOT
ATOM      1  O   UNL d   1      17.104  27.899  15.475  0.00  0.00    -0.309 OA
ATOM      2  O   UNL d   1      19.327  27.499  13.500  0.00  0.00    -0.287 OA
ATOM      3  C   UNL d   1      17.647  27.753  13.837  0.00  0.00     0.081 A 
ATOM      4  C   UNL d   1      18.044  27.778  15.797  0.00  0.00     0.090 A 
ATOM      5  C   UNL d   1      16.906  27.886  14.495  0.00  0.00     0.095 A 
ATOM      6  C   UNL d   1      18.586  27.632  14.159  0.00  0.00     0.190 A 
ATOM      7  C   UNL d   1      18.784  27.645  15.139  0.00  0.00     0.094 A 
ATOM      8  C   UNL d   1      17.456  27.737  12.813  0.00  0.00     0.085 A 
ATOM      9  C   UNL d   1      15.923  28.014  14.175  0.00  0.00     0.075 A 
ATOM     10  C   UNL d   1      15.709  28.001  13.156  0.00  0.00     0.071 A 
ATOM     11  C   UNL d   1      16.480  27.862  12.471  0.00  0.00     0.074 A 
ENDROOT
BRANCH   4  12
ATOM     12  C   UNL d   1      18.242  27.791  16.777  0.00  0.00     0.001 A 
ATOM     13  C   UNL d   1      18.764  28.547  17.172  0.00  0.00     0.054 A 
ATOM     14  C   UNL d   1      18.962  28.560  18.152  0.00  0.00     0.102 A 
ATOM     15  C   UNL d   1      18.638  27.817  18.737  0.00  0.00     0.099 A 
ATOM     16  C   UNL d   1      18.116  27.061  18.342  0.00  0.00     0.040 A 
ATOM     17  C   UNL d   1      17.918  27.048  17.362  0.00  0.00     0.017 A 
BRANCH  14  18
ATOM     18  O   UNL d   1      19.484  29.316  18.546  0.00  0.00    -0.353 OA
ATOM     19  C   UNL d   1      19.952  29.967  17.948  0.00  0.00     0.210 C 
ENDBRANCH  14  18
BRANCH  15  20
ATOM     20  O   UNL d   1      18.837  27.830  19.717  0.00  0.00    -0.358 OA
ATOM     21  H   UNL d   1      18.642  28.303  20.067  0.00  0.00     0.217 HD
ENDBRANCH  15  20
ENDBRANCH   4  12
BRANCH   8  22
ATOM     22  O   UNL d   1      18.204  27.603  12.164  0.00  0.00    -0.360 OA
ATOM     23  H   UNL d   1      18.784  27.754  12.324  0.00  0.00     0.217 HD
ENDBRANCH   8  22
BRANCH  10  24
ATOM     24  O   UNL d   1      14.768  28.122  12.838  0.00  0.00    -0.361 OA
ATOM     25  H   UNL d   1      14.357  27.664  12.907  0.00  0.00     0.217 HD
ENDBRANCH  10  24
TORSDOF 5
ENDMDL
MODEL 5
REMARK VINA RESULT:    -7.817     51.381     52.498
REMARK INTER + INTRA:          -7.276
REMARK INTER:                  -9.111
REMARK INTRA:                   1.834
REMARK UNBOUND:                 2.141
REMARK  5 active torsions:
REMARK  status: ('A' for Active; 'I' for Inactive)
REMARK    1  A    between atoms: O_2  and  C_13 
REMARK    2  A    between atoms: O_3  and  C_19 
REMARK    3  A    between atoms: O_5  and  C_17 
REMARK    4  A    between atoms: O_6  and  C_21 
REMARK    5  A    between atoms: C_8  and  C_10 
ROOT
ATOM      1  O   UNL d   1      -6.870  45.010  33.275  0.00  0.00    -0.309 OA
ATOM      2  O   UNL d   1      -5.759  46.776  31.119  0.00  0.00    -0.287 OA
ATOM      3  C   UNL d   1      -6.670  45.382  31.595  0.00  0.00     0.081 A 
ATOM      4  C   UNL d   1      -6.329  45.816  33.518  0.00  0.00     0.090 A 
ATOM      5  C   UNL d   1      -7.040  44.793  32.314  0.00  0.00     0.095 A 
ATOM      6  C   UNL d   1      -6.129  46.187  31.838  0.00  0.00     0.190 A 
ATOM      7  C   UNL d   1      -5.959  46.404  32.799  0.00  0.00     0.094 A 
ATOM      8  C   UNL d   1      -6.839  45.168  30.590  0.00  0.00     0.085 A 
ATOM      9  C   UNL d   1      -7.605  43.950  32.077  0.00  0.00     0.075 A 
ATOM     10  C   UNL d   1      -7.787  43.718  31.078  0.00  0.00     0.071 A 
ATOM     11  C   UNL d   1      -7.401  44.331  30.330  0.00  0.00     0.074 A 
ENDROOT
BRANCH   4  12
ATOM     12  C   UNL d   1      -6.159  46.033  34.479  0.00  0.00     0.001 A 
ATOM     13  C   UNL d   1      -6.717  46.721  34.942  0.00  0.00     0.054 A 
ATOM     14  C   UNL d   1      -6.547  46.938  35.904  0.00  0.00     0.102 A 
ATOM     15  C   UNL d   1      -5.819  46.467  36.401  0.00  0.00     0.099 A 
ATOM     16  C   UNL d   1      -5.261  45.778  35.938  0.00  0.00     0.040 A 
ATOM     17  C   UNL d   1      -5.431  45.561  34.977  0.00  0.00     0.017 A 
BRANCH  14  18
ATOM     18  O   UNL d   1      -7.104  47.627  36.367  0.00  0.00    -0.353 OA
ATOM     19  C   UNL d   1      -7.679  48.247  35.833  0.00  0.00     0.210 C 
ENDBRANCH  14  18
BRANCH  15  20
ATOM     20  O   UNL d   1      -5.648  46.684  37.362  0.00  0.00    -0.358 OA
ATOM     21  H   UNL d   1      -5.720  46.247  37.796  0.00  0.00     0.217 HD
ENDBRANCH  15  20
ENDBRANCH   4  12
BRANCH   8  22
ATOM     22  O   UNL d   1      -6.464  45.764  29.880  0.00  0.00    -0.360 OA
ATOM     23  H   UNL d   1      -6.230  45.518  29.361  0.00  0.00     0.217 HD
ENDBRANCH   8  22
BRANCH  10  24
ATOM     24  O   UNL d   1      -8.328  42.911  30.840  0.00  0.00    -0.361 OA
ATOM     25  H   UNL d   1      -8.378  42.736  30.248  0.00  0.00     0.217 HD
ENDBRANCH  10  24
TORSDOF 5
ENDMDL
