MODEL 1
REMARK VINA RESULT:    -8.453      0.000      0.000
REMARK INTER + INTRA:          -8.443
REMARK INTER:                  -9.473
REMARK INTRA:                   1.031
REMARK UNBOUND:                 0.999
REMARK  3 active torsions:
REMARK  status: ('A' for Active; 'I' for Inactive)
REMARK    1  A    between atoms: O_2  and  C_10 
REMARK    2  A    between atoms: O_4  and  C_13 
REMARK    3  A    between atoms: C_7  and  C_9 
ROOT
ATOM      1  O   UNL d   1      28.466   7.411  25.407  0.00  0.00    -0.309 OA
ATOM      2  O   UNL d   1      28.054   8.711  22.735  0.00  0.00    -0.287 OA
ATOM      3  C   UNL d   1      29.087   8.319  24.070  0.00  0.00     0.081 A 
ATOM      4  C   UNL d   1      29.224   7.886  24.960  0.00  0.00     0.095 A 
ATOM      5  C   UNL d   1      27.571   7.369  24.964  0.00  0.00     0.090 A 
ATOM      6  C   UNL d   1      28.191   8.278  23.626  0.00  0.00     0.190 A 
ATOM      7  C   UNL d   1      29.867   8.818  23.592  0.00  0.00     0.085 A 
ATOM      8  C   UNL d   1      27.434   7.803  24.073  0.00  0.00     0.094 A 
ATOM      9  C   UNL d   1      30.151   7.921  25.435  0.00  0.00     0.075 A 
ATOM     10  C   UNL d   1      30.945   8.414  24.975  0.00  0.00     0.071 A 
ATOM     11  C   UNL d   1      30.802   8.865  24.048  0.00  0.00     0.074 A 
ENDROOT
BRANCH   5  12
ATOM     12  C   UNL d   1      26.813   6.894  25.411  0.00  0.00    -0.002 A 
ATOM     13  C   UNL d   1      26.358   7.309  26.198  0.00  0.00     0.014 A 
ATOM     14  C   UNL d   1      25.600   6.834  26.646  0.00  0.00     0.001 A 
ATOM     15  C   UNL d   1      25.298   5.944  26.305  0.00  0.00     0.000 A 
ATOM     16  C   UNL d   1      25.753   5.529  25.518  0.00  0.00     0.001 A 
ATOM     17  C   UNL d   1      26.511   6.004  25.071  0.00  0.00     0.014 A 
ENDBRANCH   5  12
BRANCH   7  18
ATOM     18  O   UNL d   1      29.718   9.248  22.702  0.00  0.00    -0.360 OA
ATOM     19  H   UNL d   1      29.810   9.856  22.632  0.00  0.00     0.217 HD
ENDBRANCH   7  18
BRANCH  10  20
ATOM     20  O   UNL d   1      31.839   8.453  25.422  0.00  0.00    -0.361 OA
ATOM     21  H   UNL d   1      32.178   7.938  25.482  0.00  0.00     0.217 HD
ENDBRANCH  10  20
TORSDOF 3
ENDMDL
MODEL 2
REMARK VINA RESULT:    -8.398     23.411     24.411
REMARK INTER + INTRA:          -8.381
REMARK INTER:                  -9.422
REMARK INTRA:                   1.041
REMARK UNBOUND:                 0.999
REMARK  3 active torsions:
REMARK  status: ('A' for Active; 'I' for Inactive)
REMARK    1  A    between atoms: O_2  and  C_10 
REMARK    2  A    between atoms: O_4  and  C_13 
REMARK    3  A    between atoms: C_7  and  C_9 
ROOT
ATOM      1  O   UNL d   1      18.974  28.811  16.304  0.00  0.00    -0.309 OA
ATOM      2  O   UNL d   1      17.895  26.969  18.411  0.00  0.00    -0.287 OA
ATOM      3  C   UNL d   1      18.809  28.373  17.972  0.00  0.00     0.081 A 
ATOM      4  C   UNL d   1      19.169  28.987  17.269  0.00  0.00     0.095 A 
ATOM      5  C   UNL d   1      18.420  28.022  16.042  0.00  0.00     0.090 A 
ATOM      6  C   UNL d   1      18.254  27.583  17.709  0.00  0.00     0.190 A 
ATOM      7  C   UNL d   1      19.003  28.543  18.981  0.00  0.00     0.085 A 
ATOM      8  C   UNL d   1      18.060  27.408  16.744  0.00  0.00     0.094 A 
ATOM      9  C   UNL d   1      19.748  29.814  17.528  0.00  0.00     0.075 A 
ATOM     10  C   UNL d   1      19.955  30.003  18.531  0.00  0.00     0.071 A 
ATOM     11  C   UNL d   1      19.580  29.363  19.262  0.00  0.00     0.074 A 
ENDROOT
BRANCH   5  12
ATOM     12  C   UNL d   1      18.225  27.846  15.077  0.00  0.00    -0.002 A 
ATOM     13  C   UNL d   1      17.303  27.993  14.718  0.00  0.00     0.014 A 
ATOM     14  C   UNL d   1      17.109  27.817  13.753  0.00  0.00     0.001 A 
ATOM     15  C   UNL d   1      17.836  27.496  13.146  0.00  0.00     0.000 A 
ATOM     16  C   UNL d   1      18.758  27.349  13.505  0.00  0.00     0.001 A 
ATOM     17  C   UNL d   1      18.953  27.525  14.470  0.00  0.00     0.014 A 
ENDBRANCH   5  12
BRANCH   7  18
ATOM     18  O   UNL d   1      18.638  27.922  19.674  0.00  0.00    -0.360 OA
ATOM     19  H   UNL d   1      18.679  27.309  19.593  0.00  0.00     0.217 HD
ENDBRANCH   7  18
BRANCH  10  20
ATOM     20  O   UNL d   1      20.510  30.794  18.789  0.00  0.00    -0.361 OA
ATOM     21  H   UNL d   1      20.412  31.342  18.518  0.00  0.00     0.217 HD
ENDBRANCH  10  20
TORSDOF 3
ENDMDL
MODEL 3
REMARK VINA RESULT:    -7.821      1.917      4.916
REMARK INTER + INTRA:          -7.736
REMARK INTER:                  -8.802
REMARK INTRA:                   1.066
REMARK UNBOUND:                 0.999
REMARK  3 active torsions:
REMARK  status: ('A' for Active; 'I' for Inactive)
REMARK    1  A    between atoms: O_2  and  C_10 
REMARK    2  A    between atoms: O_4  and  C_13 
REMARK    3  A    between atoms: C_7  and  C_9 
ROOT
ATOM      1  O   UNL d   1      27.245   6.215  24.380  0.00  0.00    -0.309 OA
ATOM      2  O   UNL d   1      25.892   7.429  26.767  0.00  0.00    -0.287 OA
ATOM      3  C   UNL d   1      26.141   6.081  25.708  0.00  0.00     0.081 A 
ATOM      4  C   UNL d   1      26.591   5.677  24.912  0.00  0.00     0.095 A 
ATOM      5  C   UNL d   1      27.447   7.159  24.643  0.00  0.00     0.090 A 
ATOM      6  C   UNL d   1      26.343   7.025  25.971  0.00  0.00     0.190 A 
ATOM      7  C   UNL d   1      25.458   5.533  26.271  0.00  0.00     0.085 A 
ATOM      8  C   UNL d   1      26.996   7.563  25.439  0.00  0.00     0.094 A 
ATOM      9  C   UNL d   1      26.391   4.696  24.625  0.00  0.00     0.075 A 
ATOM     10  C   UNL d   1      25.712   4.128  25.175  0.00  0.00     0.071 A 
ATOM     11  C   UNL d   1      25.242   4.550  26.003  0.00  0.00     0.074 A 
ENDROOT
BRANCH   5  12
ATOM     12  C   UNL d   1      28.100   7.697  24.111  0.00  0.00    -0.002 A 
ATOM     13  C   UNL d   1      28.963   7.987  24.524  0.00  0.00     0.014 A 
ATOM     14  C   UNL d   1      29.616   8.526  23.992  0.00  0.00     0.001 A 
ATOM     15  C   UNL d   1      29.406   8.774  23.047  0.00  0.00     0.000 A 
ATOM     16  C   UNL d   1      28.543   8.484  22.633  0.00  0.00     0.001 A 
ATOM     17  C   UNL d   1      27.890   7.946  23.165  0.00  0.00     0.014 A 
ENDBRANCH   5  12
BRANCH   7  18
ATOM     18  O   UNL d   1      25.013   5.948  27.065  0.00  0.00    -0.360 OA
ATOM     19  H   UNL d   1      24.597   6.400  26.986  0.00  0.00     0.217 HD
ENDBRANCH   7  18
BRANCH  10  20
ATOM     20  O   UNL d   1      25.512   3.185  24.908  0.00  0.00    -0.361 OA
ATOM     21  H   UNL d   1      25.187   3.072  24.392  0.00  0.00     0.217 HD
ENDBRANCH  10  20
TORSDOF 3
ENDMDL
MODEL 4
REMARK VINA RESULT:    -7.812      1.800      3.086
REMARK INTER + INTRA:          -7.726
REMARK INTER:                  -8.952
REMARK INTRA:                   1.226
REMARK UNBOUND:                 0.999
REMARK  3 active torsions:
REMARK  status: ('A' for Active; 'I' for Inactive)
REMARK    1  A    between atoms: O_2  and  C_10 
REMARK    2  A    between atoms: O_4  and  C_13 
REMARK    3  A    between atoms: C_7  and  C_9 
ROOT
ATOM      1  O   UNL d   1      30.089   8.632  23.829  0.00  0.00    -0.309 OA
ATOM      2  O   UNL d   1      30.540   7.673  26.636  0.00  0.00    -0.287 OA
ATOM      3  C   UNL d   1      31.096   8.525  25.234  0.00  0.00     0.081 A 
ATOM      4  C   UNL d   1      30.946   8.845  24.299  0.00  0.00     0.095 A 
ATOM      5  C   UNL d   1      29.382   8.100  24.295  0.00  0.00     0.090 A 
ATOM      6  C   UNL d   1      30.390   7.993  25.700  0.00  0.00     0.190 A 
ATOM      7  C   UNL d   1      31.984   8.739  25.736  0.00  0.00     0.085 A 
ATOM      8  C   UNL d   1      29.533   7.780  25.231  0.00  0.00     0.094 A 
ATOM      9  C   UNL d   1      31.673   9.400  23.800  0.00  0.00     0.075 A 
ATOM     10  C   UNL d   1      32.568   9.626  24.283  0.00  0.00     0.071 A 
ATOM     11  C   UNL d   1      32.724   9.293  25.256  0.00  0.00     0.074 A 
ENDROOT
BRANCH   5  12
ATOM     12  C   UNL d   1      28.525   7.887  23.826  0.00  0.00    -0.002 A 
ATOM     13  C   UNL d   1      27.656   7.959  24.315  0.00  0.00     0.014 A 
ATOM     14  C   UNL d   1      26.799   7.747  23.846  0.00  0.00     0.001 A 
ATOM     15  C   UNL d   1      26.811   7.462  22.887  0.00  0.00     0.000 A 
ATOM     16  C   UNL d   1      27.681   7.390  22.398  0.00  0.00     0.001 A 
ATOM     17  C   UNL d   1      28.538   7.603  22.867  0.00  0.00     0.014 A 
ENDBRANCH   5  12
BRANCH   7  18
ATOM     18  O   UNL d   1      32.123   8.414  26.671  0.00  0.00    -0.360 OA
ATOM     19  H   UNL d   1      32.670   8.173  26.837  0.00  0.00     0.217 HD
ENDBRANCH   7  18
BRANCH  10  20
ATOM     20  O   UNL d   1      33.272  10.159  23.813  0.00  0.00    -0.361 OA
ATOM     21  H   UNL d   1      33.669  10.504  24.141  0.00  0.00     0.217 HD
ENDBRANCH  10  20
TORSDOF 3
ENDMDL
MODEL 5
REMARK VINA RESULT:    -7.733      1.864      4.589
REMARK INTER + INTRA:          -7.638
REMARK INTER:                  -8.780
REMARK INTRA:                   1.142
REMARK UNBOUND:                 0.999
REMARK  3 active torsions:
REMARK  status: ('A' for Active; 'I' for Inactive)
REMARK    1  A    between atoms: O_2  and  C_10 
REMARK    2  A    between atoms: O_4  and  C_13 
REMARK    3  A    between atoms: C_7  and  C_9 
ROOT
ATOM      1  O   UNL d   1      29.506   8.198  23.325  0.00  0.00    -0.309 OA
ATOM      2  O   UNL d   1      27.339   7.507  25.282  0.00  0.00    -0.287 OA
ATOM      3  C   UNL d   1      27.928   7.563  23.654  0.00  0.00     0.081 A 
ATOM      4  C   UNL d   1      28.651   7.793  23.002  0.00  0.00     0.095 A 
ATOM      5  C   UNL d   1      29.640   8.372  24.301  0.00  0.00     0.090 A 
ATOM      6  C   UNL d   1      28.062   7.737  24.630  0.00  0.00     0.190 A 
ATOM      7  C   UNL d   1      27.032   7.142  23.332  0.00  0.00     0.085 A 
ATOM      8  C   UNL d   1      28.917   8.142  24.953  0.00  0.00     0.094 A 
ATOM      9  C   UNL d   1      28.527   7.618  21.982  0.00  0.00     0.075 A 
ATOM     10  C   UNL d   1      27.638   7.197  21.638  0.00  0.00     0.071 A 
ATOM     11  C   UNL d   1      26.886   6.958  22.317  0.00  0.00     0.074 A 
ENDROOT
BRANCH   5  12
ATOM     12  C   UNL d   1      30.495   8.776  24.625  0.00  0.00    -0.002 A 
ATOM     13  C   UNL d   1      31.017   8.328  25.351  0.00  0.00     0.014 A 
ATOM     14  C   UNL d   1      31.872   8.732  25.674  0.00  0.00     0.001 A 
ATOM     15  C   UNL d   1      32.206   9.584  25.271  0.00  0.00     0.000 A 
ATOM     16  C   UNL d   1      31.685  10.032  24.545  0.00  0.00     0.001 A 
ATOM     17  C   UNL d   1      30.829   9.628  24.222  0.00  0.00     0.014 A 
ENDBRANCH   5  12
BRANCH   7  18
ATOM     18  O   UNL d   1      26.317   6.916  23.993  0.00  0.00    -0.360 OA
ATOM     19  H   UNL d   1      26.410   7.019  24.597  0.00  0.00     0.217 HD
ENDBRANCH   7  18
BRANCH  10  20
ATOM     20  O   UNL d   1      27.509   7.025  20.661  0.00  0.00    -0.361 OA
ATOM     21  H   UNL d   1      26.939   6.929  20.437  0.00  0.00     0.217 HD
ENDBRANCH  10  20
TORSDOF 3
ENDMDL
