MODEL 1
REMARK VINA RESULT:    -5.564      0.000      0.000
REMARK INTER + INTRA:          -2.181
REMARK INTER:                  -7.200
REMARK INTRA:                   5.019
REMARK UNBOUND:                 5.010
REMARK  6 active torsions:
REMARK  status: ('A' for Active; 'I' for Inactive)
REMARK    1  A    between atoms: O_2  and  C_15 
REMARK    2  A    between atoms: O_3  and  C_17 
REMARK    3  A    between atoms: O_4  and  C_11 
REMARK    4  A    between atoms: O_6  and  C_22 
REMARK    5  A    between atoms: O_7  and  C_20 
REMARK    6  A    between atoms: C_10  and  C_13 
ROOT
ATOM      1  O   UNL d   1      36.166  42.467  41.192  0.00  0.00    -0.309 OA
ATOM      2  O   UNL d   1      33.465  41.664  39.975  0.00  0.00    -0.287 OA
ATOM      3  C   UNL d   1      34.429  42.766  40.969  0.00  0.00     0.084 A 
ATOM      4  C   UNL d   1      35.307  43.031  41.367  0.00  0.00     0.096 A 
ATOM      5  C   UNL d   1      36.108  41.616  40.594  0.00  0.00     0.090 A 
ATOM      6  C   UNL d   1      33.613  43.317  41.145  0.00  0.00     0.119 A 
ATOM      7  C   UNL d   1      34.349  41.919  40.368  0.00  0.00     0.190 A 
ATOM      8  C   UNL d   1      35.370  43.847  41.942  0.00  0.00     0.078 A 
ATOM      9  C   UNL d   1      33.676  44.133  41.720  0.00  0.00     0.136 A 
ATOM     10  C   UNL d   1      35.193  41.340  40.179  0.00  0.00     0.094 A 
ATOM     11  C   UNL d   1      34.554  44.398  42.119  0.00  0.00     0.107 A 
ENDROOT
BRANCH   5  12
ATOM     12  C   UNL d   1      36.926  41.068  40.420  0.00  0.00     0.001 A 
ATOM     13  C   UNL d   1      37.449  41.205  39.579  0.00  0.00     0.053 A 
ATOM     14  C   UNL d   1      38.267  40.656  39.404  0.00  0.00     0.099 A 
ATOM     15  C   UNL d   1      38.561  39.971  40.070  0.00  0.00     0.101 A 
ATOM     16  C   UNL d   1      38.037  39.834  40.911  0.00  0.00     0.040 A 
ATOM     17  C   UNL d   1      37.220  40.382  41.085  0.00  0.00     0.017 A 
BRANCH  14  18
ATOM     18  O   UNL d   1      38.792  40.793  38.563  0.00  0.00    -0.358 OA
ATOM     19  H   UNL d   1      38.709  40.413  38.081  0.00  0.00     0.217 HD
ENDBRANCH  14  18
BRANCH  15  20
ATOM     20  O   UNL d   1      39.379  39.422  39.895  0.00  0.00    -0.353 OA
ATOM     21  C   UNL d   1      39.660  38.721  40.550  0.00  0.00     0.210 C 
ENDBRANCH  15  20
ENDBRANCH   5  12
BRANCH   6  22
ATOM     22  O   UNL d   1      32.735  43.052  40.747  0.00  0.00    -0.357 OA
ATOM     23  H   UNL d   1      32.720  42.712  40.229  0.00  0.00     0.218 HD
ENDBRANCH   6  22
BRANCH  11  24
ATOM     24  O   UNL d   1      34.616  45.213  42.694  0.00  0.00    -0.353 OA
ATOM     25  C   UNL d   1      35.408  45.345  43.291  0.00  0.00     0.210 C 
ENDBRANCH  11  24
BRANCH   9  26
ATOM     26  O   UNL d   1      32.860  44.684  41.897  0.00  0.00    -0.351 OA
ATOM     27  C   UNL d   1      32.524  45.317  41.200  0.00  0.00     0.210 C 
ENDBRANCH   9  26
TORSDOF 6
ENDMDL
MODEL 2
REMARK VINA RESULT:    -5.041      3.465      6.526
REMARK INTER + INTRA:          -1.504
REMARK INTER:                  -6.528
REMARK INTRA:                   5.024
REMARK UNBOUND:                 5.010
REMARK  6 active torsions:
REMARK  status: ('A' for Active; 'I' for Inactive)
REMARK    1  A    between atoms: O_2  and  C_15 
REMARK    2  A    between atoms: O_3  and  C_17 
REMARK    3  A    between atoms: O_4  and  C_11 
REMARK    4  A    between atoms: O_6  and  C_22 
REMARK    5  A    between atoms: O_7  and  C_20 
REMARK    6  A    between atoms: C_10  and  C_13 
ROOT
ATOM      1  O   UNL d   1      38.755  40.939  37.453  0.00  0.00    -0.309 OA
ATOM      2  O   UNL d   1      40.225  38.266  37.789  0.00  0.00    -0.287 OA
ATOM      3  C   UNL d   1      39.160  39.519  38.441  0.00  0.00     0.084 A 
ATOM      4  C   UNL d   1      38.679  40.390  38.335  0.00  0.00     0.096 A 
ATOM      5  C   UNL d   1      39.340  40.576  36.671  0.00  0.00     0.090 A 
ATOM      6  C   UNL d   1      39.077  39.003  39.294  0.00  0.00     0.119 A 
ATOM      7  C   UNL d   1      39.749  39.138  37.672  0.00  0.00     0.190 A 
ATOM      8  C   UNL d   1      38.117  40.745  39.082  0.00  0.00     0.078 A 
ATOM      9  C   UNL d   1      38.515  39.358  40.040  0.00  0.00     0.136 A 
ATOM     10  C   UNL d   1      39.840  39.669  36.781  0.00  0.00     0.094 A 
ATOM     11  C   UNL d   1      38.034  40.228  39.935  0.00  0.00     0.107 A 
ENDROOT
BRANCH   5  12
ATOM     12  C   UNL d   1      39.420  41.095  35.820  0.00  0.00     0.001 A 
ATOM     13  C   UNL d   1      38.671  41.086  35.157  0.00  0.00     0.053 A 
ATOM     14  C   UNL d   1      38.751  41.604  34.305  0.00  0.00     0.099 A 
ATOM     15  C   UNL d   1      39.579  42.132  34.118  0.00  0.00     0.101 A 
ATOM     16  C   UNL d   1      40.328  42.141  34.781  0.00  0.00     0.040 A 
ATOM     17  C   UNL d   1      40.248  41.623  35.632  0.00  0.00     0.017 A 
BRANCH  14  18
ATOM     18  O   UNL d   1      38.003  41.596  33.642  0.00  0.00    -0.358 OA
ATOM     19  H   UNL d   1      37.827  41.063  33.379  0.00  0.00     0.217 HD
ENDBRANCH  14  18
BRANCH  15  20
ATOM     20  O   UNL d   1      39.659  42.651  33.267  0.00  0.00    -0.353 OA
ATOM     21  C   UNL d   1      40.504  43.143  33.058  0.00  0.00     0.210 C 
ENDBRANCH  15  20
ENDBRANCH   5  12
BRANCH   6  22
ATOM     22  O   UNL d   1      39.557  38.132  39.399  0.00  0.00    -0.357 OA
ATOM     23  H   UNL d   1      39.241  37.620  39.547  0.00  0.00     0.218 HD
ENDBRANCH   6  22
BRANCH  11  24
ATOM     24  O   UNL d   1      37.472  40.583  40.681  0.00  0.00    -0.353 OA
ATOM     25  C   UNL d   1      36.808  41.310  40.506  0.00  0.00     0.210 C 
ENDBRANCH  11  24
BRANCH   9  26
ATOM     26  O   UNL d   1      38.432  38.842  40.893  0.00  0.00    -0.351 OA
ATOM     27  C   UNL d   1      39.156  38.894  41.581  0.00  0.00     0.210 C 
ENDBRANCH   9  26
TORSDOF 6
ENDMDL
MODEL 3
REMARK VINA RESULT:    -4.779      4.885      6.759
REMARK INTER + INTRA:          -1.165
REMARK INTER:                  -6.271
REMARK INTRA:                   5.106
REMARK UNBOUND:                 5.010
REMARK  6 active torsions:
REMARK  status: ('A' for Active; 'I' for Inactive)
REMARK    1  A    between atoms: O_2  and  C_15 
REMARK    2  A    between atoms: O_3  and  C_17 
REMARK    3  A    between atoms: O_4  and  C_11 
REMARK    4  A    between atoms: O_6  and  C_22 
REMARK    5  A    between atoms: O_7  and  C_20 
REMARK    6  A    between atoms: C_10  and  C_13 
ROOT
ATOM      1  O   UNL d   1      39.159  40.762  36.932  0.00  0.00    -0.309 OA
ATOM      2  O   UNL d   1      36.824  39.280  35.601  0.00  0.00    -0.287 OA
ATOM      3  C   UNL d   1      38.153  40.443  35.502  0.00  0.00     0.084 A 
ATOM      4  C   UNL d   1      38.915  40.928  35.932  0.00  0.00     0.096 A 
ATOM      5  C   UNL d   1      38.602  40.081  37.490  0.00  0.00     0.090 A 
ATOM      6  C   UNL d   1      37.931  40.613  34.542  0.00  0.00     0.119 A 
ATOM      7  C   UNL d   1      37.583  39.759  36.042  0.00  0.00     0.190 A 
ATOM      8  C   UNL d   1      39.454  41.582  35.402  0.00  0.00     0.078 A 
ATOM      9  C   UNL d   1      38.470  41.267  34.012  0.00  0.00     0.136 A 
ATOM     10  C   UNL d   1      37.808  39.576  37.042  0.00  0.00     0.094 A 
ATOM     11  C   UNL d   1      39.231  41.752  34.442  0.00  0.00     0.107 A 
ENDROOT
BRANCH   5  12
ATOM     12  C   UNL d   1      38.827  39.914  38.449  0.00  0.00     0.001 A 
ATOM     13  C   UNL d   1      39.426  39.152  38.697  0.00  0.00     0.053 A 
ATOM     14  C   UNL d   1      39.652  38.984  39.656  0.00  0.00     0.099 A 
ATOM     15  C   UNL d   1      39.278  39.578  40.369  0.00  0.00     0.101 A 
ATOM     16  C   UNL d   1      38.679  40.340  40.122  0.00  0.00     0.040 A 
ATOM     17  C   UNL d   1      38.453  40.507  39.162  0.00  0.00     0.017 A 
BRANCH  14  18
ATOM     18  O   UNL d   1      40.251  38.223  39.905  0.00  0.00    -0.358 OA
ATOM     19  H   UNL d   1      40.016  37.720  40.178  0.00  0.00     0.217 HD
ENDBRANCH  14  18
BRANCH  15  20
ATOM     20  O   UNL d   1      39.503  39.411  41.328  0.00  0.00    -0.353 OA
ATOM     21  C   UNL d   1      38.803  39.521  42.033  0.00  0.00     0.210 C 
ENDBRANCH  15  20
ENDBRANCH   5  12
BRANCH   6  22
ATOM     22  O   UNL d   1      37.169  40.128  34.112  0.00  0.00    -0.357 OA
ATOM     23  H   UNL d   1      37.188  39.511  34.054  0.00  0.00     0.218 HD
ENDBRANCH   6  22
BRANCH  11  24
ATOM     24  O   UNL d   1      39.771  42.407  33.912  0.00  0.00    -0.353 OA
ATOM     25  C   UNL d   1      40.560  42.858  34.329  0.00  0.00     0.210 C 
ENDBRANCH  11  24
BRANCH   9  26
ATOM     26  O   UNL d   1      38.247  41.437  33.052  0.00  0.00    -0.351 OA
ATOM     27  C   UNL d   1      38.533  40.785  32.350  0.00  0.00     0.210 C 
ENDBRANCH   9  26
TORSDOF 6
ENDMDL
MODEL 4
REMARK VINA RESULT:    -4.755      1.454      5.915
REMARK INTER + INTRA:          -1.135
REMARK INTER:                  -6.152
REMARK INTRA:                   5.017
REMARK UNBOUND:                 5.010
REMARK  6 active torsions:
REMARK  status: ('A' for Active; 'I' for Inactive)
REMARK    1  A    between atoms: O_2  and  C_15 
REMARK    2  A    between atoms: O_3  and  C_17 
REMARK    3  A    between atoms: O_4  and  C_11 
REMARK    4  A    between atoms: O_6  and  C_22 
REMARK    5  A    between atoms: O_7  and  C_20 
REMARK    6  A    between atoms: C_10  and  C_13 
ROOT
ATOM      1  O   UNL d   1      36.362  40.878  41.670  0.00  0.00    -0.309 OA
ATOM      2  O   UNL d   1      38.429  40.813  39.403  0.00  0.00    -0.287 OA
ATOM      3  C   UNL d   1      37.837  40.196  40.952  0.00  0.00     0.084 A 
ATOM      4  C   UNL d   1      37.165  40.214  41.692  0.00  0.00     0.096 A 
ATOM      5  C   UNL d   1      36.257  41.531  40.865  0.00  0.00     0.090 A 
ATOM      6  C   UNL d   1      38.602  39.554  40.987  0.00  0.00     0.119 A 
ATOM      7  C   UNL d   1      37.752  40.840  40.138  0.00  0.00     0.190 A 
ATOM      8  C   UNL d   1      37.259  39.590  42.468  0.00  0.00     0.078 A 
ATOM      9  C   UNL d   1      38.696  38.930  41.763  0.00  0.00     0.136 A 
ATOM     10  C   UNL d   1      36.957  41.512  40.094  0.00  0.00     0.094 A 
ATOM     11  C   UNL d   1      38.024  38.948  42.503  0.00  0.00     0.107 A 
ENDROOT
BRANCH   5  12
ATOM     12  C   UNL d   1      35.491  42.171  40.833  0.00  0.00     0.001 A 
ATOM     13  C   UNL d   1      34.677  41.950  40.296  0.00  0.00     0.053 A 
ATOM     14  C   UNL d   1      33.909  42.591  40.263  0.00  0.00     0.099 A 
ATOM     15  C   UNL d   1      33.957  43.453  40.769  0.00  0.00     0.101 A 
ATOM     16  C   UNL d   1      34.770  43.674  41.306  0.00  0.00     0.040 A 
ATOM     17  C   UNL d   1      35.537  43.033  41.338  0.00  0.00     0.017 A 
BRANCH  14  18
ATOM     18  O   UNL d   1      33.095  42.371  39.726  0.00  0.00    -0.358 OA
ATOM     19  H   UNL d   1      33.002  42.644  39.178  0.00  0.00     0.217 HD
ENDBRANCH  14  18
BRANCH  15  20
ATOM     20  O   UNL d   1      33.190  44.094  40.737  0.00  0.00    -0.353 OA
ATOM     21  C   UNL d   1      33.172  44.884  41.348  0.00  0.00     0.210 C 
ENDBRANCH  15  20
ENDBRANCH   5  12
BRANCH   6  22
ATOM     22  O   UNL d   1      39.274  39.536  40.246  0.00  0.00    -0.357 OA
ATOM     23  H   UNL d   1      39.417  40.058  39.945  0.00  0.00     0.218 HD
ENDBRANCH   6  22
BRANCH  11  24
ATOM     24  O   UNL d   1      38.118  38.324  43.279  0.00  0.00    -0.353 OA
ATOM     25  C   UNL d   1      37.367  38.220  43.931  0.00  0.00     0.210 C 
ENDBRANCH  11  24
BRANCH   9  26
ATOM     26  O   UNL d   1      39.462  38.287  41.798  0.00  0.00    -0.351 OA
ATOM     27  C   UNL d   1      40.369  38.606  42.072  0.00  0.00     0.210 C 
ENDBRANCH   9  26
TORSDOF 6
ENDMDL
MODEL 5
REMARK VINA RESULT:    -4.569      4.962      8.176
REMARK INTER + INTRA:          -0.894
REMARK INTER:                  -5.905
REMARK INTRA:                   5.012
REMARK UNBOUND:                 5.010
REMARK  6 active torsions:
REMARK  status: ('A' for Active; 'I' for Inactive)
REMARK    1  A    between atoms: O_2  and  C_15 
REMARK    2  A    between atoms: O_3  and  C_17 
REMARK    3  A    between atoms: O_4  and  C_11 
REMARK    4  A    between atoms: O_6  and  C_22 
REMARK    5  A    between atoms: O_7  and  C_20 
REMARK    6  A    between atoms: C_10  and  C_13 
ROOT
ATOM      1  O   UNL d   1      40.217  40.627  35.914  0.00  0.00    -0.309 OA
ATOM      2  O   UNL d   1      38.793  43.050  34.681  0.00  0.00    -0.287 OA
ATOM      3  C   UNL d   1      40.213  42.001  34.787  0.00  0.00     0.084 A 
ATOM      4  C   UNL d   1      40.681  41.212  35.187  0.00  0.00     0.096 A 
ATOM      5  C   UNL d   1      39.254  40.868  36.229  0.00  0.00     0.090 A 
ATOM      6  C   UNL d   1      40.671  42.552  34.090  0.00  0.00     0.119 A 
ATOM      7  C   UNL d   1      39.250  42.259  35.087  0.00  0.00     0.190 A 
ATOM      8  C   UNL d   1      41.605  40.975  34.889  0.00  0.00     0.078 A 
ATOM      9  C   UNL d   1      41.596  42.315  33.792  0.00  0.00     0.136 A 
ATOM     10  C   UNL d   1      38.767  41.690  35.813  0.00  0.00     0.094 A 
ATOM     11  C   UNL d   1      42.063  41.527  34.192  0.00  0.00     0.107 A 
ENDROOT
BRANCH   5  12
ATOM     12  C   UNL d   1      38.799  40.314  36.926  0.00  0.00     0.001 A 
ATOM     13  C   UNL d   1      38.806  40.610  37.882  0.00  0.00     0.053 A 
ATOM     14  C   UNL d   1      38.351  40.056  38.580  0.00  0.00     0.099 A 
ATOM     15  C   UNL d   1      37.891  39.207  38.322  0.00  0.00     0.101 A 
ATOM     16  C   UNL d   1      37.884  38.911  37.367  0.00  0.00     0.040 A 
ATOM     17  C   UNL d   1      38.339  39.465  36.669  0.00  0.00     0.017 A 
BRANCH  14  18
ATOM     18  O   UNL d   1      38.357  40.351  39.536  0.00  0.00    -0.358 OA
ATOM     19  H   UNL d   1      38.731  40.811  39.716  0.00  0.00     0.217 HD
ENDBRANCH  14  18
BRANCH  15  20
ATOM     20  O   UNL d   1      37.436  38.653  39.019  0.00  0.00    -0.353 OA
ATOM     21  C   UNL d   1      36.989  37.796  38.765  0.00  0.00     0.210 C 
ENDBRANCH  15  20
ENDBRANCH   5  12
BRANCH   6  22
ATOM     22  O   UNL d   1      40.204  43.341  33.690  0.00  0.00    -0.357 OA
ATOM     23  H   UNL d   1      39.819  43.263  33.210  0.00  0.00     0.218 HD
ENDBRANCH   6  22
BRANCH  11  24
ATOM     24  O   UNL d   1      42.988  41.290  33.894  0.00  0.00    -0.353 OA
ATOM     25  C   UNL d   1      43.528  40.631  34.417  0.00  0.00     0.210 C 
ENDBRANCH  11  24
BRANCH   9  26
ATOM     26  O   UNL d   1      42.053  42.867  33.095  0.00  0.00    -0.351 OA
ATOM     27  C   UNL d   1      41.833  42.735  32.128  0.00  0.00     0.210 C 
ENDBRANCH   9  26
TORSDOF 6
ENDMDL
