MODEL 1
REMARK VINA RESULT:    -3.698      0.000      0.000
REMARK INTER + INTRA:           4.819
REMARK INTER:                  -7.459
REMARK INTRA:                  12.279
REMARK UNBOUND:                11.976
REMARK  19 active torsions:
REMARK  status: ('A' for Active; 'I' for Inactive)
REMARK    1  A    between atoms: C_13  and  O_1 
REMARK    2  A    between atoms: O_1  and  C_17 
REMARK    3  A    between atoms: C_14  and  O_2 
REMARK    4  A    between atoms: O_2  and  C_18 
REMARK    5  A    between atoms: O_3  and  C_15 
REMARK    6  A    between atoms: O_4  and  C_16 
REMARK    7  A    between atoms: O_9  and  C_29 
REMARK    8  A    between atoms: O_10  and  C_30 
REMARK    9  A    between atoms: O_11  and  C_33 
REMARK   10  A    between atoms: O_12  and  C_34 
REMARK   11  A    between atoms: C_13  and  C_14 
REMARK   12  A    between atoms: C_13  and  C_15 
REMARK   13  A    between atoms: C_14  and  C_16 
REMARK   14  A    between atoms: C_17  and  C_21 
REMARK   15  A    between atoms: C_18  and  C_22 
REMARK   16  A    between atoms: C_19  and  C_23 
REMARK   17  A    between atoms: C_20  and  C_24 
REMARK   18  A    between atoms: C_21  and  C_23 
REMARK   19  A    between atoms: C_22  and  C_24 
ROOT
ATOM      1  C   UNL d   1      31.725  45.784  28.923  0.00  0.00     0.269 C 
ENDROOT
BRANCH   1   2
ATOM      2  O   UNL d   1      31.324  46.128  29.772  0.00  0.00    -0.299 OA
BRANCH   2   3
ATOM      3  C   UNL d   1      30.545  45.655  30.184  0.00  0.00     0.283 C 
ATOM      4  O   UNL d   1      29.613  45.900  29.916  0.00  0.00    -0.260 OA
BRANCH   3   5
ATOM      5  C   UNL d   1      30.698  44.938  30.864  0.00  0.00     0.083 C 
BRANCH   5   6
ATOM      6  C   UNL d   1      30.358  45.054  31.798  0.00  0.00     0.017 C 
BRANCH   6   7
ATOM      7  C   UNL d   1      30.630  44.409  32.512  0.00  0.00    -0.033 A 
ATOM      8  C   UNL d   1      31.552  44.451  32.898  0.00  0.00     0.050 A 
ATOM      9  C   UNL d   1      31.824  43.806  33.613  0.00  0.00     0.099 A 
ATOM     10  C   UNL d   1      31.174  43.120  33.941  0.00  0.00     0.098 A 
ATOM     11  C   UNL d   1      30.253  43.079  33.555  0.00  0.00     0.040 A 
ATOM     12  C   UNL d   1      29.981  43.723  32.840  0.00  0.00     0.014 A 
BRANCH   9  13
ATOM     13  O   UNL d   1      32.745  43.848  33.999  0.00  0.00    -0.358 OA
ATOM     14  H   UNL d   1      33.202  43.513  33.747  0.00  0.00     0.217 HD
ENDBRANCH   9  13
BRANCH  10  15
ATOM     15  O   UNL d   1      31.447  42.476  34.656  0.00  0.00    -0.358 OA
ATOM     16  H   UNL d   1      31.130  42.452  35.188  0.00  0.00     0.217 HD
ENDBRANCH  10  15
ENDBRANCH   6   7
ENDBRANCH   5   6
ENDBRANCH   3   5
ENDBRANCH   2   3
ENDBRANCH   1   2
BRANCH   1  17
ATOM     17  C   UNL d   1      32.716  45.671  28.848  0.00  0.00     0.269 C 
BRANCH  17  18
ATOM     18  O   UNL d   1      33.103  44.771  28.647  0.00  0.00    -0.299 OA
BRANCH  18  19
ATOM     19  C   UNL d   1      33.840  44.405  29.215  0.00  0.00     0.283 C 
ATOM     20  O   UNL d   1      34.786  44.679  29.043  0.00  0.00    -0.260 OA
BRANCH  19  21
ATOM     21  C   UNL d   1      33.631  43.765  29.954  0.00  0.00     0.083 C 
BRANCH  21  22
ATOM     22  C   UNL d   1      33.764  42.783  29.818  0.00  0.00     0.017 C 
BRANCH  22  23
ATOM     23  C   UNL d   1      33.492  42.138  30.532  0.00  0.00    -0.033 A 
ATOM     24  C   UNL d   1      34.088  41.985  31.321  0.00  0.00     0.050 A 
ATOM     25  C   UNL d   1      33.816  41.340  32.035  0.00  0.00     0.099 A 
ATOM     26  C   UNL d   1      32.949  40.849  31.961  0.00  0.00     0.098 A 
ATOM     27  C   UNL d   1      32.353  41.002  31.173  0.00  0.00     0.040 A 
ATOM     28  C   UNL d   1      32.625  41.647  30.458  0.00  0.00     0.014 A 
BRANCH  25  29
ATOM     29  O   UNL d   1      34.412  41.187  32.823  0.00  0.00    -0.358 OA
ATOM     30  H   UNL d   1      34.722  41.662  33.075  0.00  0.00     0.217 HD
ENDBRANCH  25  29
BRANCH  26  31
ATOM     31  O   UNL d   1      32.677  40.204  32.675  0.00  0.00    -0.358 OA
ATOM     32  H   UNL d   1      32.977  39.664  32.736  0.00  0.00     0.217 HD
ENDBRANCH  26  31
ENDBRANCH  22  23
ENDBRANCH  21  22
ENDBRANCH  19  21
ENDBRANCH  18  19
ENDBRANCH  17  18
BRANCH  17  33
ATOM     33  C   UNL d   1      33.320  46.458  28.975  0.00  0.00     0.173 C 
ATOM     34  O   UNL d   1      33.598  46.731  29.896  0.00  0.00    -0.648 OA
BRANCH  33  35
ATOM     35  O   UNL d   1      33.646  46.971  28.181  0.00  0.00    -0.774 OA
ATOM     36  H   UNL d   1      33.838  46.670  27.675  0.00  0.00     0.167 HD
ENDBRANCH  33  35
ENDBRANCH  17  33
ENDBRANCH   1  17
BRANCH   1  37
ATOM     37  C   UNL d   1      31.136  45.553  28.149  0.00  0.00     0.173 C 
ATOM     38  O   UNL d   1      30.780  46.278  27.559  0.00  0.00    -0.648 OA
BRANCH  37  39
ATOM     39  O   UNL d   1      30.903  44.599  27.965  0.00  0.00    -0.774 OA
ATOM     40  H   UNL d   1      30.614  44.446  27.438  0.00  0.00     0.167 HD
ENDBRANCH  37  39
ENDBRANCH   1  37
TORSDOF 19
ENDMDL
MODEL 2
REMARK VINA RESULT:    -2.986      2.193      4.773
REMARK INTER + INTRA:           6.198
REMARK INTER:                  -6.639
REMARK INTRA:                  12.836
REMARK UNBOUND:                11.976
REMARK  19 active torsions:
REMARK  status: ('A' for Active; 'I' for Inactive)
REMARK    1  A    between atoms: C_13  and  O_1 
REMARK    2  A    between atoms: O_1  and  C_17 
REMARK    3  A    between atoms: C_14  and  O_2 
REMARK    4  A    between atoms: O_2  and  C_18 
REMARK    5  A    between atoms: O_3  and  C_15 
REMARK    6  A    between atoms: O_4  and  C_16 
REMARK    7  A    between atoms: O_9  and  C_29 
REMARK    8  A    between atoms: O_10  and  C_30 
REMARK    9  A    between atoms: O_11  and  C_33 
REMARK   10  A    between atoms: O_12  and  C_34 
REMARK   11  A    between atoms: C_13  and  C_14 
REMARK   12  A    between atoms: C_13  and  C_15 
REMARK   13  A    between atoms: C_14  and  C_16 
REMARK   14  A    between atoms: C_17  and  C_21 
REMARK   15  A    between atoms: C_18  and  C_22 
REMARK   16  A    between atoms: C_19  and  C_23 
REMARK   17  A    between atoms: C_20  and  C_24 
REMARK   18  A    between atoms: C_21  and  C_23 
REMARK   19  A    between atoms: C_22  and  C_24 
ROOT
ATOM      1  C   UNL d   1      27.979  46.861  30.992  0.00  0.00     0.269 C 
ENDROOT
BRANCH   1   2
ATOM      2  O   UNL d   1      28.142  46.340  30.154  0.00  0.00    -0.299 OA
BRANCH   2   3
ATOM      3  C   UNL d   1      28.977  46.491  29.625  0.00  0.00     0.283 C 
ATOM      4  O   UNL d   1      28.993  47.184  28.905  0.00  0.00    -0.260 OA
BRANCH   3   5
ATOM      5  C   UNL d   1      29.795  45.949  29.817  0.00  0.00     0.083 C 
BRANCH   5   6
ATOM      6  C   UNL d   1      30.560  45.954  29.173  0.00  0.00     0.017 C 
BRANCH   6   7
ATOM      7  C   UNL d   1      31.409  45.479  29.401  0.00  0.00    -0.033 A 
ATOM      8  C   UNL d   1      31.523  44.515  29.161  0.00  0.00     0.050 A 
ATOM      9  C   UNL d   1      32.372  44.039  29.390  0.00  0.00     0.099 A 
ATOM     10  C   UNL d   1      33.108  44.527  29.859  0.00  0.00     0.098 A 
ATOM     11  C   UNL d   1      32.995  45.491  30.099  0.00  0.00     0.040 A 
ATOM     12  C   UNL d   1      32.145  45.967  29.870  0.00  0.00     0.014 A 
BRANCH   9  13
ATOM     13  O   UNL d   1      32.486  43.075  29.149  0.00  0.00    -0.358 OA
ATOM     14  H   UNL d   1      32.310  42.872  28.590  0.00  0.00     0.217 HD
ENDBRANCH   9  13
BRANCH  10  15
ATOM     15  O   UNL d   1      33.958  44.052  30.087  0.00  0.00    -0.358 OA
ATOM     16  H   UNL d   1      34.431  44.054  29.687  0.00  0.00     0.217 HD
ENDBRANCH  10  15
ENDBRANCH   6   7
ENDBRANCH   5   6
ENDBRANCH   3   5
ENDBRANCH   2   3
ENDBRANCH   1   2
BRANCH   1  17
ATOM     17  C   UNL d   1      27.821  46.383  31.856  0.00  0.00     0.269 C 
BRANCH  17  18
ATOM     18  O   UNL d   1      28.510  46.418  32.580  0.00  0.00    -0.299 OA
BRANCH  18  19
ATOM     19  C   UNL d   1      28.676  45.614  33.150  0.00  0.00     0.283 C 
ATOM     20  O   UNL d   1      28.239  45.537  34.046  0.00  0.00    -0.260 OA
BRANCH  19  21
ATOM     21  C   UNL d   1      29.280  44.886  32.825  0.00  0.00     0.083 C 
BRANCH  21  22
ATOM     22  C   UNL d   1      30.134  44.692  33.308  0.00  0.00     0.017 C 
BRANCH  22  23
ATOM     23  C   UNL d   1      30.708  43.925  33.020  0.00  0.00    -0.033 A 
ATOM     24  C   UNL d   1      31.685  43.924  33.235  0.00  0.00     0.050 A 
ATOM     25  C   UNL d   1      32.259  43.157  32.947  0.00  0.00     0.099 A 
ATOM     26  C   UNL d   1      31.856  42.392  32.444  0.00  0.00     0.098 A 
ATOM     27  C   UNL d   1      30.880  42.394  32.229  0.00  0.00     0.040 A 
ATOM     28  C   UNL d   1      30.306  43.161  32.517  0.00  0.00     0.014 A 
BRANCH  25  29
ATOM     29  O   UNL d   1      33.235  43.155  33.163  0.00  0.00    -0.358 OA
ATOM     30  H   UNL d   1      33.570  42.639  33.081  0.00  0.00     0.217 HD
ENDBRANCH  25  29
BRANCH  26  31
ATOM     31  O   UNL d   1      32.430  41.625  32.157  0.00  0.00    -0.358 OA
ATOM     32  H   UNL d   1      33.001  41.560  32.391  0.00  0.00     0.217 HD
ENDBRANCH  26  31
ENDBRANCH  22  23
ENDBRANCH  21  22
ENDBRANCH  19  21
ENDBRANCH  18  19
ENDBRANCH  17  18
BRANCH  17  33
ATOM     33  C   UNL d   1      26.974  45.871  31.996  0.00  0.00     0.173 C 
ATOM     34  O   UNL d   1      26.891  44.937  31.647  0.00  0.00    -0.648 OA
BRANCH  33  35
ATOM     35  O   UNL d   1      26.209  46.292  32.485  0.00  0.00    -0.774 OA
ATOM     36  H   UNL d   1      26.220  46.329  33.103  0.00  0.00     0.167 HD
ENDBRANCH  33  35
ENDBRANCH  17  33
ENDBRANCH   1  17
BRANCH   1  37
ATOM     37  C   UNL d   1      27.974  47.861  30.965  0.00  0.00     0.173 C 
ATOM     38  O   UNL d   1      28.724  48.375  31.381  0.00  0.00    -0.648 OA
BRANCH  37  39
ATOM     39  O   UNL d   1      27.220  48.346  30.523  0.00  0.00    -0.774 OA
ATOM     40  H   UNL d   1      27.245  48.962  30.455  0.00  0.00     0.167 HD
ENDBRANCH  37  39
ENDBRANCH   1  37
TORSDOF 19
ENDMDL
MODEL 3
REMARK VINA RESULT:    -2.914      1.675      2.492
REMARK INTER + INTRA:           6.337
REMARK INTER:                  -6.083
REMARK INTRA:                  12.420
REMARK UNBOUND:                11.976
REMARK  19 active torsions:
REMARK  status: ('A' for Active; 'I' for Inactive)
REMARK    1  A    between atoms: C_13  and  O_1 
REMARK    2  A    between atoms: O_1  and  C_17 
REMARK    3  A    between atoms: C_14  and  O_2 
REMARK    4  A    between atoms: O_2  and  C_18 
REMARK    5  A    between atoms: O_3  and  C_15 
REMARK    6  A    between atoms: O_4  and  C_16 
REMARK    7  A    between atoms: O_9  and  C_29 
REMARK    8  A    between atoms: O_10  and  C_30 
REMARK    9  A    between atoms: O_11  and  C_33 
REMARK   10  A    between atoms: O_12  and  C_34 
REMARK   11  A    between atoms: C_13  and  C_14 
REMARK   12  A    between atoms: C_13  and  C_15 
REMARK   13  A    between atoms: C_14  and  C_16 
REMARK   14  A    between atoms: C_17  and  C_21 
REMARK   15  A    between atoms: C_18  and  C_22 
REMARK   16  A    between atoms: C_19  and  C_23 
REMARK   17  A    between atoms: C_20  and  C_24 
REMARK   18  A    between atoms: C_21  and  C_23 
REMARK   19  A    between atoms: C_22  and  C_24 
ROOT
ATOM      1  C   UNL d   1      29.484  46.267  29.499  0.00  0.00     0.269 C 
ENDROOT
BRANCH   1   2
ATOM      2  O   UNL d   1      29.696  46.331  30.474  0.00  0.00    -0.299 OA
BRANCH   2   3
ATOM      3  C   UNL d   1      29.116  45.867  31.143  0.00  0.00     0.283 C 
ATOM      4  O   UNL d   1      28.170  46.163  31.275  0.00  0.00    -0.260 OA
BRANCH   3   5
ATOM      5  C   UNL d   1      29.481  45.107  31.680  0.00  0.00     0.083 C 
BRANCH   5   6
ATOM      6  C   UNL d   1      30.088  45.288  32.454  0.00  0.00     0.017 C 
BRANCH   6   7
ATOM      7  C   UNL d   1      30.442  44.528  33.000  0.00  0.00    -0.033 A 
ATOM      8  C   UNL d   1      31.425  44.345  33.024  0.00  0.00     0.050 A 
ATOM      9  C   UNL d   1      31.779  43.586  33.570  0.00  0.00     0.099 A 
ATOM     10  C   UNL d   1      31.150  43.010  34.092  0.00  0.00     0.098 A 
ATOM     11  C   UNL d   1      30.168  43.192  34.067  0.00  0.00     0.040 A 
ATOM     12  C   UNL d   1      29.814  43.952  33.522  0.00  0.00     0.014 A 
BRANCH   9  13
ATOM     13  O   UNL d   1      32.762  43.403  33.594  0.00  0.00    -0.358 OA
ATOM     14  H   UNL d   1      33.161  43.866  33.702  0.00  0.00     0.217 HD
ENDBRANCH   9  13
BRANCH  10  15
ATOM     15  O   UNL d   1      31.504  42.250  34.638  0.00  0.00    -0.358 OA
ATOM     16  H   UNL d   1      31.931  41.869  34.398  0.00  0.00     0.217 HD
ENDBRANCH  10  15
ENDBRANCH   6   7
ENDBRANCH   5   6
ENDBRANCH   3   5
ENDBRANCH   2   3
ENDBRANCH   1   2
BRANCH   1  17
ATOM     17  C   UNL d   1      30.089  45.757  28.887  0.00  0.00     0.269 C 
BRANCH  17  18
ATOM     18  O   UNL d   1      29.843  44.831  28.599  0.00  0.00    -0.299 OA
BRANCH  18  19
ATOM     19  C   UNL d   1      30.557  44.146  28.456  0.00  0.00     0.283 C 
ATOM     20  O   UNL d   1      31.021  44.083  27.572  0.00  0.00    -0.260 OA
BRANCH  19  21
ATOM     21  C   UNL d   1      30.808  43.524  29.198  0.00  0.00     0.083 C 
BRANCH  21  22
ATOM     22  C   UNL d   1      30.566  42.555  29.142  0.00  0.00     0.017 C 
BRANCH  22  23
ATOM     23  C   UNL d   1      30.751  41.948  29.914  0.00  0.00    -0.033 A 
ATOM     24  C   UNL d   1      29.993  41.568  30.444  0.00  0.00     0.050 A 
ATOM     25  C   UNL d   1      30.177  40.961  31.217  0.00  0.00     0.099 A 
ATOM     26  C   UNL d   1      31.120  40.733  31.459  0.00  0.00     0.098 A 
ATOM     27  C   UNL d   1      31.879  41.113  30.929  0.00  0.00     0.040 A 
ATOM     28  C   UNL d   1      31.694  41.720  30.157  0.00  0.00     0.014 A 
BRANCH  25  29
ATOM     29  O   UNL d   1      29.419  40.582  31.747  0.00  0.00    -0.358 OA
ATOM     30  H   UNL d   1      29.462  40.011  31.985  0.00  0.00     0.217 HD
ENDBRANCH  25  29
BRANCH  26  31
ATOM     31  O   UNL d   1      31.305  40.126  32.232  0.00  0.00    -0.358 OA
ATOM     32  H   UNL d   1      31.858  40.141  32.513  0.00  0.00     0.217 HD
ENDBRANCH  26  31
ENDBRANCH  22  23
ENDBRANCH  21  22
ENDBRANCH  19  21
ENDBRANCH  18  19
ENDBRANCH  17  18
BRANCH  17  33
ATOM     33  C   UNL d   1      30.939  46.172  28.565  0.00  0.00     0.173 C 
ATOM     34  O   UNL d   1      30.974  46.607  27.665  0.00  0.00    -0.648 OA
BRANCH  33  35
ATOM     35  O   UNL d   1      31.756  46.153  29.142  0.00  0.00    -0.774 OA
ATOM     36  H   UNL d   1      31.852  46.603  29.557  0.00  0.00     0.167 HD
ENDBRANCH  33  35
ENDBRANCH  17  33
ENDBRANCH   1  17
BRANCH   1  37
ATOM     37  C   UNL d   1      28.666  46.713  29.135  0.00  0.00     0.173 C 
ATOM     38  O   UNL d   1      28.529  47.694  29.271  0.00  0.00    -0.648 OA
BRANCH  37  39
ATOM     39  O   UNL d   1      27.985  46.179  28.634  0.00  0.00    -0.774 OA
ATOM     40  H   UNL d   1      27.526  46.466  28.332  0.00  0.00     0.167 HD
ENDBRANCH  37  39
ENDBRANCH   1  37
TORSDOF 19
ENDMDL
MODEL 4
REMARK VINA RESULT:    -2.911      1.017      3.974
REMARK INTER + INTRA:           6.342
REMARK INTER:                  -7.075
REMARK INTRA:                  13.416
REMARK UNBOUND:                11.976
REMARK  19 active torsions:
REMARK  status: ('A' for Active; 'I' for Inactive)
REMARK    1  A    between atoms: C_13  and  O_1 
REMARK    2  A    between atoms: O_1  and  C_17 
REMARK    3  A    between atoms: C_14  and  O_2 
REMARK    4  A    between atoms: O_2  and  C_18 
REMARK    5  A    between atoms: O_3  and  C_15 
REMARK    6  A    between atoms: O_4  and  C_16 
REMARK    7  A    between atoms: O_9  and  C_29 
REMARK    8  A    between atoms: O_10  and  C_30 
REMARK    9  A    between atoms: O_11  and  C_33 
REMARK   10  A    between atoms: O_12  and  C_34 
REMARK   11  A    between atoms: C_13  and  C_14 
REMARK   12  A    between atoms: C_13  and  C_15 
REMARK   13  A    between atoms: C_14  and  C_16 
REMARK   14  A    between atoms: C_17  and  C_21 
REMARK   15  A    between atoms: C_18  and  C_22 
REMARK   16  A    between atoms: C_19  and  C_23 
REMARK   17  A    between atoms: C_20  and  C_24 
REMARK   18  A    between atoms: C_21  and  C_23 
REMARK   19  A    between atoms: C_22  and  C_24 
ROOT
ATOM      1  C   UNL d   1      31.346  45.540  29.232  0.00  0.00     0.269 C 
ENDROOT
BRANCH   1   2
ATOM      2  O   UNL d   1      31.436  44.555  29.383  0.00  0.00    -0.299 OA
BRANCH   2   3
ATOM      3  C   UNL d   1      32.104  44.028  28.858  0.00  0.00     0.283 C 
ATOM      4  O   UNL d   1      32.005  43.941  27.867  0.00  0.00    -0.260 OA
BRANCH   3   5
ATOM      5  C   UNL d   1      32.871  43.587  29.325  0.00  0.00     0.083 C 
BRANCH   5   6
ATOM      6  C   UNL d   1      32.811  42.623  29.584  0.00  0.00     0.017 C 
BRANCH   6   7
ATOM      7  C   UNL d   1      33.496  42.226  30.195  0.00  0.00    -0.033 A 
ATOM      8  C   UNL d   1      33.223  41.868  31.088  0.00  0.00     0.050 A 
ATOM      9  C   UNL d   1      33.908  41.471  31.698  0.00  0.00     0.099 A 
ATOM     10  C   UNL d   1      34.867  41.433  31.416  0.00  0.00     0.098 A 
ATOM     11  C   UNL d   1      35.140  41.791  30.524  0.00  0.00     0.040 A 
ATOM     12  C   UNL d   1      34.455  42.188  29.913  0.00  0.00     0.014 A 
BRANCH   9  13
ATOM     13  O   UNL d   1      33.635  41.113  32.591  0.00  0.00    -0.358 OA
ATOM     14  H   UNL d   1      34.010  40.727  32.898  0.00  0.00     0.217 HD
ENDBRANCH   9  13
BRANCH  10  15
ATOM     15  O   UNL d   1      35.552  41.036  32.027  0.00  0.00    -0.358 OA
ATOM     16  H   UNL d   1      36.153  41.060  31.876  0.00  0.00     0.217 HD
ENDBRANCH  10  15
ENDBRANCH   6   7
ENDBRANCH   5   6
ENDBRANCH   3   5
ENDBRANCH   2   3
ENDBRANCH   1   2
BRANCH   1  17
ATOM     17  C   UNL d   1      30.458  45.984  29.348  0.00  0.00     0.269 C 
BRANCH  17  18
ATOM     18  O   UNL d   1      30.229  46.424  30.217  0.00  0.00    -0.299 OA
BRANCH  18  19
ATOM     19  C   UNL d   1      29.751  45.908  30.928  0.00  0.00     0.283 C 
ATOM     20  O   UNL d   1      28.756  45.816  30.896  0.00  0.00    -0.260 OA
BRANCH  19  21
ATOM     21  C   UNL d   1      30.269  45.483  31.671  0.00  0.00     0.083 C 
BRANCH  21  22
ATOM     22  C   UNL d   1      29.787  45.068  32.443  0.00  0.00     0.017 C 
BRANCH  22  23
ATOM     23  C   UNL d   1      30.240  44.370  32.997  0.00  0.00    -0.033 A 
ATOM     24  C   UNL d   1      31.225  44.422  33.161  0.00  0.00     0.050 A 
ATOM     25  C   UNL d   1      31.677  43.723  33.715  0.00  0.00     0.099 A 
ATOM     26  C   UNL d   1      31.144  42.973  34.106  0.00  0.00     0.098 A 
ATOM     27  C   UNL d   1      30.159  42.921  33.943  0.00  0.00     0.040 A 
ATOM     28  C   UNL d   1      29.707  43.619  33.388  0.00  0.00     0.014 A 
BRANCH  25  29
ATOM     29  O   UNL d   1      32.662  43.775  33.879  0.00  0.00    -0.358 OA
ATOM     30  H   UNL d   1      32.882  43.756  34.458  0.00  0.00     0.217 HD
ENDBRANCH  25  29
BRANCH  26  31
ATOM     31  O   UNL d   1      31.597  42.274  34.661  0.00  0.00    -0.358 OA
ATOM     32  H   UNL d   1      31.793  42.412  35.233  0.00  0.00     0.217 HD
ENDBRANCH  26  31
ENDBRANCH  22  23
ENDBRANCH  21  22
ENDBRANCH  19  21
ENDBRANCH  18  19
ENDBRANCH  17  18
BRANCH  17  33
ATOM     33  C   UNL d   1      29.799  45.989  28.596  0.00  0.00     0.173 C 
ATOM     34  O   UNL d   1      29.570  46.848  28.138  0.00  0.00    -0.648 OA
BRANCH  33  35
ATOM     35  O   UNL d   1      29.368  45.136  28.303  0.00  0.00    -0.774 OA
ATOM     36  H   UNL d   1      28.899  45.148  27.898  0.00  0.00     0.167 HD
ENDBRANCH  33  35
ENDBRANCH  17  33
ENDBRANCH   1  17
BRANCH   1  37
ATOM     37  C   UNL d   1      32.144  46.080  28.964  0.00  0.00     0.173 C 
ATOM     38  O   UNL d   1      32.864  46.272  29.631  0.00  0.00    -0.648 OA
BRANCH  37  39
ATOM     39  O   UNL d   1      32.222  46.427  28.030  0.00  0.00    -0.774 OA
ATOM     40  H   UNL d   1      32.781  46.526  27.781  0.00  0.00     0.167 HD
ENDBRANCH  37  39
ENDBRANCH   1  37
TORSDOF 19
ENDMDL
MODEL 5
REMARK VINA RESULT:    -2.824      2.623      5.845
REMARK INTER + INTRA:           6.512
REMARK INTER:                  -6.649
REMARK INTRA:                  13.161
REMARK UNBOUND:                11.976
REMARK  19 active torsions:
REMARK  status: ('A' for Active; 'I' for Inactive)
REMARK    1  A    between atoms: C_13  and  O_1 
REMARK    2  A    between atoms: O_1  and  C_17 
REMARK    3  A    between atoms: C_14  and  O_2 
REMARK    4  A    between atoms: O_2  and  C_18 
REMARK    5  A    between atoms: O_3  and  C_15 
REMARK    6  A    between atoms: O_4  and  C_16 
REMARK    7  A    between atoms: O_9  and  C_29 
REMARK    8  A    between atoms: O_10  and  C_30 
REMARK    9  A    between atoms: O_11  and  C_33 
REMARK   10  A    between atoms: O_12  and  C_34 
REMARK   11  A    between atoms: C_13  and  C_14 
REMARK   12  A    between atoms: C_13  and  C_15 
REMARK   13  A    between atoms: C_14  and  C_16 
REMARK   14  A    between atoms: C_17  and  C_21 
REMARK   15  A    between atoms: C_18  and  C_22 
REMARK   16  A    between atoms: C_19  and  C_23 
REMARK   17  A    between atoms: C_20  and  C_24 
REMARK   18  A    between atoms: C_21  and  C_23 
REMARK   19  A    between atoms: C_22  and  C_24 
ROOT
ATOM      1  C   UNL d   1      27.789  47.447  31.777  0.00  0.00     0.269 C 
ENDROOT
BRANCH   1   2
ATOM      2  O   UNL d   1      27.332  47.180  30.928  0.00  0.00    -0.299 OA
BRANCH   2   3
ATOM      3  C   UNL d   1      27.440  47.737  30.105  0.00  0.00     0.283 C 
ATOM      4  O   UNL d   1      26.764  48.439  29.883  0.00  0.00    -0.260 OA
BRANCH   3   5
ATOM      5  C   UNL d   1      28.226  47.593  29.504  0.00  0.00     0.083 C 
BRANCH   5   6
ATOM      6  C   UNL d   1      28.086  47.279  28.565  0.00  0.00     0.017 C 
BRANCH   6   7
ATOM      7  C   UNL d   1      28.862  46.950  28.026  0.00  0.00    -0.033 A 
ATOM      8  C   UNL d   1      28.965  45.972  27.843  0.00  0.00     0.050 A 
ATOM      9  C   UNL d   1      29.740  45.643  27.305  0.00  0.00     0.099 A 
ATOM     10  C   UNL d   1      30.413  46.292  26.950  0.00  0.00     0.098 A 
ATOM     11  C   UNL d   1      30.311  47.270  27.132  0.00  0.00     0.040 A 
ATOM     12  C   UNL d   1      29.535  47.599  27.671  0.00  0.00     0.014 A 
BRANCH   9  13
ATOM     13  O   UNL d   1      29.843  44.666  27.122  0.00  0.00    -0.358 OA
ATOM     14  H   UNL d   1      29.596  44.250  27.510  0.00  0.00     0.217 HD
ENDBRANCH   9  13
BRANCH  10  15
ATOM     15  O   UNL d   1      31.189  45.963  26.411  0.00  0.00    -0.358 OA
ATOM     16  H   UNL d   1      31.727  46.271  26.422  0.00  0.00     0.217 HD
ENDBRANCH  10  15
ENDBRANCH   6   7
ENDBRANCH   5   6
ENDBRANCH   3   5
ENDBRANCH   2   3
ENDBRANCH   1   2
BRANCH   1  17
ATOM     17  C   UNL d   1      28.099  46.747  32.420  0.00  0.00     0.269 C 
BRANCH  17  18
ATOM     18  O   UNL d   1      29.058  46.467  32.429  0.00  0.00    -0.299 OA
BRANCH  18  19
ATOM     19  C   UNL d   1      29.332  45.604  32.003  0.00  0.00     0.283 C 
ATOM     20  O   UNL d   1      28.648  44.899  31.819  0.00  0.00    -0.260 OA
BRANCH  19  21
ATOM     21  C   UNL d   1      30.290  45.448  31.761  0.00  0.00     0.083 C 
BRANCH  21  22
ATOM     22  C   UNL d   1      30.525  45.100  30.853  0.00  0.00     0.017 C 
BRANCH  22  23
ATOM     23  C   UNL d   1      31.481  45.076  30.560  0.00  0.00    -0.033 A 
ATOM     24  C   UNL d   1      31.911  45.900  30.190  0.00  0.00     0.050 A 
ATOM     25  C   UNL d   1      32.866  45.877  29.896  0.00  0.00     0.099 A 
ATOM     26  C   UNL d   1      33.392  45.030  29.972  0.00  0.00     0.098 A 
ATOM     27  C   UNL d   1      32.962  44.206  30.341  0.00  0.00     0.040 A 
ATOM     28  C   UNL d   1      32.007  44.229  30.635  0.00  0.00     0.014 A 
BRANCH  25  29
ATOM     29  O   UNL d   1      33.296  46.701  29.527  0.00  0.00    -0.358 OA
ATOM     30  H   UNL d   1      33.797  46.653  29.164  0.00  0.00     0.217 HD
ENDBRANCH  25  29
BRANCH  26  31
ATOM     31  O   UNL d   1      34.347  45.006  29.678  0.00  0.00    -0.358 OA
ATOM     32  H   UNL d   1      34.523  44.623  29.223  0.00  0.00     0.217 HD
ENDBRANCH  26  31
ENDBRANCH  22  23
ENDBRANCH  21  22
ENDBRANCH  19  21
ENDBRANCH  18  19
ENDBRANCH  17  18
BRANCH  17  33
ATOM     33  C   UNL d   1      27.449  46.327  33.053  0.00  0.00     0.173 C 
ATOM     34  O   UNL d   1      27.634  46.331  34.035  0.00  0.00    -0.648 OA
BRANCH  33  35
ATOM     35  O   UNL d   1      26.614  45.902  32.703  0.00  0.00    -0.774 OA
ATOM     36  H   UNL d   1      26.060  46.099  32.899  0.00  0.00     0.167 HD
ENDBRANCH  33  35
ENDBRANCH  17  33
ENDBRANCH   1  17
BRANCH   1  37
ATOM     37  C   UNL d   1      27.936  48.415  31.982  0.00  0.00     0.173 C 
ATOM     38  O   UNL d   1      28.783  48.863  31.697  0.00  0.00    -0.648 OA
BRANCH  37  39
ATOM     39  O   UNL d   1      27.236  48.934  32.473  0.00  0.00    -0.774 OA
ATOM     40  H   UNL d   1      26.821  48.638  32.825  0.00  0.00     0.167 HD
ENDBRANCH  37  39
ENDBRANCH   1  37
TORSDOF 19
ENDMDL
