MODEL 1
REMARK VINA RESULT:    -4.671      0.000      0.000
REMARK INTER + INTRA:           6.097
REMARK INTER:                  -6.339
REMARK INTRA:                  12.436
REMARK UNBOUND:                12.406
REMARK  9 active torsions:
REMARK  status: ('A' for Active; 'I' for Inactive)
REMARK    1  A    between atoms: C_15  and  O_2 
REMARK    2  A    between atoms: O_2  and  C_17 
REMARK    3  A    between atoms: C_11  and  O_3 
REMARK    4  A    between atoms: C_12  and  O_4 
REMARK    5  A    between atoms: C_13  and  O_5 
REMARK    6  A    between atoms: O_8  and  C_23 
REMARK    7  A    between atoms: O_9  and  C_28 
REMARK    8  A    between atoms: O_10  and  C_31 
REMARK    9  A    between atoms: C_18  and  C_22 
ROOT
ATOM      1  O   UNL d   1      39.154  49.270  29.305  0.00  0.00    -0.306 OA
ATOM      2  O   UNL d   1      40.240  48.454  31.980  0.00  0.00    -0.284 OA
ATOM      3  C   UNL d   1      40.489  48.790  30.299  0.00  0.00     0.157 A 
ATOM      4  C   UNL d   1      40.127  49.062  29.408  0.00  0.00     0.123 A 
ATOM      5  C   UNL d   1      39.878  48.726  31.088  0.00  0.00     0.223 A 
ATOM      6  C   UNL d   1      38.905  48.933  30.986  0.00  0.00     0.084 A 
ATOM      7  C   UNL d   1      38.543  49.205  30.094  0.00  0.00     0.096 A 
ATOM      8  C   UNL d   1      38.281  48.861  31.817  0.00  0.00     0.085 A 
ATOM      9  C   UNL d   1      37.532  49.425  29.972  0.00  0.00     0.075 A 
ATOM     10  C   UNL d   1      37.266  49.076  31.718  0.00  0.00     0.074 A 
ATOM     11  C   UNL d   1      36.889  49.360  30.789  0.00  0.00     0.071 A 
ENDROOT
BRANCH   3  12
ATOM     12  O   UNL d   1      41.462  48.583  30.402  0.00  0.00    -0.311 OA
BRANCH  12  13
ATOM     13  C   UNL d   1      41.757  47.644  30.581  0.00  0.00     0.298 A 
ATOM     14  O   UNL d   1      41.143  46.880  30.380  0.00  0.00    -0.351 OA
ATOM     15  C   UNL d   1      41.438  45.942  30.559  0.00  0.00     0.152 A 
ATOM     16  C   UNL d   1      42.346  45.767  30.939  0.00  0.00     0.178 A 
ATOM     17  C   UNL d   1      40.825  45.178  30.358  0.00  0.00     0.042 C 
ATOM     18  C   UNL d   1      42.960  46.531  31.140  0.00  0.00     0.183 A 
ATOM     19  C   UNL d   1      42.665  47.469  30.961  0.00  0.00     0.205 A 
BRANCH  16  20
ATOM     20  O   UNL d   1      42.641  44.828  31.118  0.00  0.00    -0.390 OA
ATOM     21  H   UNL d   1      42.272  44.353  30.968  0.00  0.00     0.210 HD
ENDBRANCH  16  20
BRANCH  18  22
ATOM     22  O   UNL d   1      43.868  46.356  31.520  0.00  0.00    -0.390 OA
ATOM     23  H   UNL d   1      44.132  46.772  31.897  0.00  0.00     0.210 HD
ENDBRANCH  18  22
BRANCH  19  24
ATOM     24  O   UNL d   1      43.278  48.233  31.162  0.00  0.00    -0.388 OA
ATOM     25  H   UNL d   1      43.890  48.138  31.198  0.00  0.00     0.210 HD
ENDBRANCH  19  24
ENDBRANCH  12  13
ENDBRANCH   3  12
BRANCH   4  26
ATOM     26  C   UNL d   1      40.738  49.127  28.619  0.00  0.00     0.001 A 
ATOM     27  C   UNL d   1      40.720  48.419  27.913  0.00  0.00     0.017 A 
ATOM     28  C   UNL d   1      41.331  48.483  27.124  0.00  0.00     0.037 A 
ATOM     29  C   UNL d   1      41.960  49.256  27.041  0.00  0.00     0.065 A 
ATOM     30  C   UNL d   1      41.978  49.964  27.746  0.00  0.00     0.037 A 
ATOM     31  C   UNL d   1      41.367  49.900  28.536  0.00  0.00     0.017 A 
BRANCH  29  32
ATOM     32  O   UNL d   1      42.571  49.321  26.252  0.00  0.00    -0.361 OA
ATOM     33  H   UNL d   1      42.916  48.833  26.086  0.00  0.00     0.217 HD
ENDBRANCH  29  32
ENDBRANCH   4  26
BRANCH   8  34
ATOM     34  O   UNL d   1      38.654  48.588  32.704  0.00  0.00    -0.360 OA
ATOM     35  H   UNL d   1      38.288  48.583  33.205  0.00  0.00     0.217 HD
ENDBRANCH   8  34
BRANCH  11  36
ATOM     36  O   UNL d   1      35.917  49.568  30.683  0.00  0.00    -0.361 OA
ATOM     37  H   UNL d   1      35.697  49.745  30.131  0.00  0.00     0.217 HD
ENDBRANCH  11  36
TORSDOF 9
ENDMDL
MODEL 2
REMARK VINA RESULT:    -4.663      9.926     12.062
REMARK INTER + INTRA:           6.107
REMARK INTER:                  -6.307
REMARK INTRA:                  12.414
REMARK UNBOUND:                12.406
REMARK  9 active torsions:
REMARK  status: ('A' for Active; 'I' for Inactive)
REMARK    1  A    between atoms: C_15  and  O_2 
REMARK    2  A    between atoms: O_2  and  C_17 
REMARK    3  A    between atoms: C_11  and  O_3 
REMARK    4  A    between atoms: C_12  and  O_4 
REMARK    5  A    between atoms: C_13  and  O_5 
REMARK    6  A    between atoms: O_8  and  C_23 
REMARK    7  A    between atoms: O_9  and  C_28 
REMARK    8  A    between atoms: O_10  and  C_31 
REMARK    9  A    between atoms: C_18  and  C_22 
ROOT
ATOM      1  O   UNL d   1      29.271  44.326  33.878  0.00  0.00    -0.306 OA
ATOM      2  O   UNL d   1      29.094  46.657  31.997  0.00  0.00    -0.284 OA
ATOM      3  C   UNL d   1      29.899  45.220  32.534  0.00  0.00     0.157 A 
ATOM      4  C   UNL d   1      29.958  44.444  33.161  0.00  0.00     0.123 A 
ATOM      5  C   UNL d   1      29.153  45.880  32.624  0.00  0.00     0.223 A 
ATOM      6  C   UNL d   1      28.466  45.763  33.341  0.00  0.00     0.084 A 
ATOM      7  C   UNL d   1      28.524  44.986  33.968  0.00  0.00     0.096 A 
ATOM      8  C   UNL d   1      27.694  46.458  33.422  0.00  0.00     0.085 A 
ATOM      9  C   UNL d   1      27.816  44.851  34.720  0.00  0.00     0.075 A 
ATOM     10  C   UNL d   1      26.974  46.343  34.167  0.00  0.00     0.074 A 
ATOM     11  C   UNL d   1      27.036  45.534  34.820  0.00  0.00     0.071 A 
ENDROOT
BRANCH   3  12
ATOM     12  O   UNL d   1      30.586  45.338  31.817  0.00  0.00    -0.311 OA
BRANCH  12  13
ATOM     13  C   UNL d   1      30.334  45.210  30.858  0.00  0.00     0.298 A 
ATOM     14  O   UNL d   1      29.525  44.673  30.620  0.00  0.00    -0.351 OA
ATOM     15  C   UNL d   1      29.273  44.546  29.661  0.00  0.00     0.152 A 
ATOM     16  C   UNL d   1      29.831  44.956  28.939  0.00  0.00     0.178 A 
ATOM     17  C   UNL d   1      28.464  44.009  29.423  0.00  0.00     0.042 C 
ATOM     18  C   UNL d   1      30.640  45.493  29.176  0.00  0.00     0.183 A 
ATOM     19  C   UNL d   1      30.892  45.620  30.136  0.00  0.00     0.205 A 
BRANCH  16  20
ATOM     20  O   UNL d   1      29.579  44.829  27.979  0.00  0.00    -0.390 OA
ATOM     21  H   UNL d   1      28.985  44.869  27.807  0.00  0.00     0.210 HD
ENDBRANCH  16  20
BRANCH  18  22
ATOM     22  O   UNL d   1      31.198  45.903  28.455  0.00  0.00    -0.390 OA
ATOM     23  H   UNL d   1      31.321  46.511  28.465  0.00  0.00     0.210 HD
ENDBRANCH  18  22
BRANCH  19  24
ATOM     24  O   UNL d   1      31.701  46.158  30.373  0.00  0.00    -0.388 OA
ATOM     25  H   UNL d   1      31.663  46.775  30.411  0.00  0.00     0.210 HD
ENDBRANCH  19  24
ENDBRANCH  12  13
ENDBRANCH   3  12
BRANCH   4  26
ATOM     26  C   UNL d   1      30.704  43.784  33.071  0.00  0.00     0.001 A 
ATOM     27  C   UNL d   1      30.524  42.873  32.701  0.00  0.00     0.017 A 
ATOM     28  C   UNL d   1      31.270  42.213  32.611  0.00  0.00     0.037 A 
ATOM     29  C   UNL d   1      32.196  42.465  32.891  0.00  0.00     0.065 A 
ATOM     30  C   UNL d   1      32.376  43.376  33.261  0.00  0.00     0.037 A 
ATOM     31  C   UNL d   1      31.630  44.036  33.351  0.00  0.00     0.017 A 
BRANCH  29  32
ATOM     32  O   UNL d   1      32.942  41.805  32.801  0.00  0.00    -0.361 OA
ATOM     33  H   UNL d   1      33.112  41.461  33.288  0.00  0.00     0.217 HD
ENDBRANCH  29  32
ENDBRANCH   4  26
BRANCH   8  34
ATOM     34  O   UNL d   1      27.645  47.231  32.790  0.00  0.00    -0.360 OA
ATOM     35  H   UNL d   1      27.228  47.682  32.882  0.00  0.00     0.217 HD
ENDBRANCH   8  34
BRANCH  11  36
ATOM     36  O   UNL d   1      26.350  45.413  35.538  0.00  0.00    -0.361 OA
ATOM     37  H   UNL d   1      25.810  45.139  35.408  0.00  0.00     0.217 HD
ENDBRANCH  11  36
TORSDOF 9
ENDMDL
MODEL 3
REMARK VINA RESULT:    -4.657      8.135     11.150
REMARK INTER + INTRA:           6.116
REMARK INTER:                  -6.345
REMARK INTRA:                  12.460
REMARK UNBOUND:                12.406
REMARK  9 active torsions:
REMARK  status: ('A' for Active; 'I' for Inactive)
REMARK    1  A    between atoms: C_15  and  O_2 
REMARK    2  A    between atoms: O_2  and  C_17 
REMARK    3  A    between atoms: C_11  and  O_3 
REMARK    4  A    between atoms: C_12  and  O_4 
REMARK    5  A    between atoms: C_13  and  O_5 
REMARK    6  A    between atoms: O_8  and  C_23 
REMARK    7  A    between atoms: O_9  and  C_28 
REMARK    8  A    between atoms: O_10  and  C_31 
REMARK    9  A    between atoms: C_18  and  C_22 
ROOT
ATOM      1  O   UNL d   1      29.435  45.946  32.264  0.00  0.00    -0.306 OA
ATOM      2  O   UNL d   1      29.576  45.646  29.282  0.00  0.00    -0.284 OA
ATOM      3  C   UNL d   1      29.973  45.073  30.868  0.00  0.00     0.157 A 
ATOM      4  C   UNL d   1      29.926  45.173  31.862  0.00  0.00     0.123 A 
ATOM      5  C   UNL d   1      29.529  45.746  30.276  0.00  0.00     0.223 A 
ATOM      6  C   UNL d   1      29.038  46.519  30.678  0.00  0.00     0.084 A 
ATOM      7  C   UNL d   1      28.991  46.619  31.672  0.00  0.00     0.096 A 
ATOM      8  C   UNL d   1      28.580  47.212  30.049  0.00  0.00     0.085 A 
ATOM      9  C   UNL d   1      28.483  47.419  32.106  0.00  0.00     0.075 A 
ATOM     10  C   UNL d   1      28.067  48.020  30.461  0.00  0.00     0.074 A 
ATOM     11  C   UNL d   1      28.018  48.124  31.496  0.00  0.00     0.071 A 
ENDROOT
BRANCH   3  12
ATOM     12  O   UNL d   1      30.464  44.300  30.466  0.00  0.00    -0.311 OA
BRANCH  12  13
ATOM     13  C   UNL d   1      31.314  44.455  29.962  0.00  0.00     0.298 A 
ATOM     14  O   UNL d   1      31.842  45.290  30.118  0.00  0.00    -0.351 OA
ATOM     15  C   UNL d   1      32.692  45.445  29.615  0.00  0.00     0.152 A 
ATOM     16  C   UNL d   1      33.013  44.765  28.955  0.00  0.00     0.178 A 
ATOM     17  C   UNL d   1      33.221  46.279  29.771  0.00  0.00     0.042 C 
ATOM     18  C   UNL d   1      32.485  43.931  28.799  0.00  0.00     0.183 A 
ATOM     19  C   UNL d   1      31.635  43.776  29.302  0.00  0.00     0.205 A 
BRANCH  16  20
ATOM     20  O   UNL d   1      33.863  44.921  28.451  0.00  0.00    -0.390 OA
ATOM     21  H   UNL d   1      33.997  44.573  27.955  0.00  0.00     0.210 HD
ENDBRANCH  16  20
BRANCH  18  22
ATOM     22  O   UNL d   1      32.806  43.252  28.139  0.00  0.00    -0.390 OA
ATOM     23  H   UNL d   1      33.160  42.779  28.328  0.00  0.00     0.210 HD
ENDBRANCH  18  22
BRANCH  19  24
ATOM     24  O   UNL d   1      31.106  42.942  29.146  0.00  0.00    -0.388 OA
ATOM     25  H   UNL d   1      31.262  42.417  29.437  0.00  0.00     0.210 HD
ENDBRANCH  19  24
ENDBRANCH  12  13
ENDBRANCH   3  12
BRANCH   4  26
ATOM     26  C   UNL d   1      30.370  44.500  32.454  0.00  0.00     0.001 A 
ATOM     27  C   UNL d   1      31.247  44.714  32.883  0.00  0.00     0.017 A 
ATOM     28  C   UNL d   1      31.691  44.041  33.474  0.00  0.00     0.037 A 
ATOM     29  C   UNL d   1      31.257  43.155  33.637  0.00  0.00     0.065 A 
ATOM     30  C   UNL d   1      30.380  42.942  33.208  0.00  0.00     0.037 A 
ATOM     31  C   UNL d   1      29.936  43.614  32.617  0.00  0.00     0.017 A 
BRANCH  29  32
ATOM     32  O   UNL d   1      31.701  42.482  34.229  0.00  0.00    -0.361 OA
ATOM     33  H   UNL d   1      31.499  41.896  34.239  0.00  0.00     0.217 HD
ENDBRANCH  29  32
ENDBRANCH   4  26
BRANCH   8  34
ATOM     34  O   UNL d   1      28.634  47.102  29.057  0.00  0.00    -0.360 OA
ATOM     35  H   UNL d   1      29.177  46.971  28.788  0.00  0.00     0.217 HD
ENDBRANCH   8  34
BRANCH  11  36
ATOM     36  O   UNL d   1      27.528  48.895  31.902  0.00  0.00    -0.361 OA
ATOM     37  H   UNL d   1      27.279  48.841  32.467  0.00  0.00     0.217 HD
ENDBRANCH  11  36
TORSDOF 9
ENDMDL
MODEL 4
REMARK VINA RESULT:    -4.571      8.229     10.510
REMARK INTER + INTRA:           6.231
REMARK INTER:                  -6.163
REMARK INTRA:                  12.394
REMARK UNBOUND:                12.406
REMARK  9 active torsions:
REMARK  status: ('A' for Active; 'I' for Inactive)
REMARK    1  A    between atoms: C_15  and  O_2 
REMARK    2  A    between atoms: O_2  and  C_17 
REMARK    3  A    between atoms: C_11  and  O_3 
REMARK    4  A    between atoms: C_12  and  O_4 
REMARK    5  A    between atoms: C_13  and  O_5 
REMARK    6  A    between atoms: O_8  and  C_23 
REMARK    7  A    between atoms: O_9  and  C_28 
REMARK    8  A    between atoms: O_10  and  C_31 
REMARK    9  A    between atoms: C_18  and  C_22 
ROOT
ATOM      1  O   UNL d   1      30.274  45.862  30.684  0.00  0.00    -0.306 OA
ATOM      2  O   UNL d   1      30.432  44.445  33.323  0.00  0.00    -0.284 OA
ATOM      3  C   UNL d   1      31.103  44.792  31.765  0.00  0.00     0.157 A 
ATOM      4  C   UNL d   1      31.050  45.265  30.885  0.00  0.00     0.123 A 
ATOM      5  C   UNL d   1      30.379  44.917  32.443  0.00  0.00     0.223 A 
ATOM      6  C   UNL d   1      29.603  45.514  32.242  0.00  0.00     0.084 A 
ATOM      7  C   UNL d   1      29.550  45.987  31.363  0.00  0.00     0.096 A 
ATOM      8  C   UNL d   1      28.857  45.634  32.959  0.00  0.00     0.085 A 
ATOM      9  C   UNL d   1      28.747  46.612  31.139  0.00  0.00     0.075 A 
ATOM     10  C   UNL d   1      28.045  46.255  32.757  0.00  0.00     0.074 A 
ATOM     11  C   UNL d   1      27.989  46.747  31.840  0.00  0.00     0.071 A 
ENDROOT
BRANCH   3  12
ATOM     12  O   UNL d   1      31.880  44.195  31.966  0.00  0.00    -0.311 OA
BRANCH  12  13
ATOM     13  C   UNL d   1      31.745  43.206  32.034  0.00  0.00     0.298 A 
ATOM     14  O   UNL d   1      30.962  42.776  31.586  0.00  0.00    -0.351 OA
ATOM     15  C   UNL d   1      30.828  41.787  31.653  0.00  0.00     0.152 A 
ATOM     16  C   UNL d   1      31.477  41.229  32.169  0.00  0.00     0.178 A 
ATOM     17  C   UNL d   1      30.044  41.357  31.205  0.00  0.00     0.042 C 
ATOM     18  C   UNL d   1      32.261  41.659  32.617  0.00  0.00     0.183 A 
ATOM     19  C   UNL d   1      32.395  42.648  32.550  0.00  0.00     0.205 A 
BRANCH  16  20
ATOM     20  O   UNL d   1      31.343  40.240  32.237  0.00  0.00    -0.390 OA
ATOM     21  H   UNL d   1      31.475  39.945  32.766  0.00  0.00     0.210 HD
ENDBRANCH  16  20
BRANCH  18  22
ATOM     22  O   UNL d   1      32.911  41.101  33.133  0.00  0.00    -0.390 OA
ATOM     23  H   UNL d   1      32.783  40.505  33.250  0.00  0.00     0.210 HD
ENDBRANCH  18  22
BRANCH  19  24
ATOM     24  O   UNL d   1      33.179  43.078  32.998  0.00  0.00    -0.388 OA
ATOM     25  H   UNL d   1      33.103  43.603  33.318  0.00  0.00     0.210 HD
ENDBRANCH  19  24
ENDBRANCH  12  13
ENDBRANCH   3  12
BRANCH   4  26
ATOM     26  C   UNL d   1      31.774  45.140  30.206  0.00  0.00     0.001 A 
ATOM     27  C   UNL d   1      31.613  44.566  29.403  0.00  0.00     0.017 A 
ATOM     28  C   UNL d   1      32.337  44.441  28.725  0.00  0.00     0.037 A 
ATOM     29  C   UNL d   1      33.222  44.890  28.849  0.00  0.00     0.065 A 
ATOM     30  C   UNL d   1      33.383  45.464  29.652  0.00  0.00     0.037 A 
ATOM     31  C   UNL d   1      32.659  45.589  30.330  0.00  0.00     0.017 A 
BRANCH  29  32
ATOM     32  O   UNL d   1      33.945  44.765  28.170  0.00  0.00    -0.361 OA
ATOM     33  H   UNL d   1      34.057  45.208  27.751  0.00  0.00     0.217 HD
ENDBRANCH  29  32
ENDBRANCH   4  26
BRANCH   8  34
ATOM     34  O   UNL d   1      28.920  45.157  33.836  0.00  0.00    -0.360 OA
ATOM     35  H   UNL d   1      28.532  45.304  34.297  0.00  0.00     0.217 HD
ENDBRANCH   8  34
BRANCH  11  36
ATOM     36  O   UNL d   1      27.215  47.345  31.636  0.00  0.00    -0.361 OA
ATOM     37  H   UNL d   1      27.310  47.946  31.514  0.00  0.00     0.217 HD
ENDBRANCH  11  36
TORSDOF 9
ENDMDL
MODEL 5
REMARK VINA RESULT:    -4.465      1.793      2.499
REMARK INTER + INTRA:           6.374
REMARK INTER:                  -6.057
REMARK INTRA:                  12.431
REMARK UNBOUND:                12.406
REMARK  9 active torsions:
REMARK  status: ('A' for Active; 'I' for Inactive)
REMARK    1  A    between atoms: C_15  and  O_2 
REMARK    2  A    between atoms: O_2  and  C_17 
REMARK    3  A    between atoms: C_11  and  O_3 
REMARK    4  A    between atoms: C_12  and  O_4 
REMARK    5  A    between atoms: C_13  and  O_5 
REMARK    6  A    between atoms: O_8  and  C_23 
REMARK    7  A    between atoms: O_9  and  C_28 
REMARK    8  A    between atoms: O_10  and  C_31 
REMARK    9  A    between atoms: C_18  and  C_22 
ROOT
ATOM      1  O   UNL d   1      40.276  48.564  30.133  0.00  0.00    -0.306 OA
ATOM      2  O   UNL d   1      42.740  49.410  31.619  0.00  0.00    -0.284 OA
ATOM      3  C   UNL d   1      41.955  48.988  30.134  0.00  0.00     0.157 A 
ATOM      4  C   UNL d   1      41.133  48.706  29.639  0.00  0.00     0.123 A 
ATOM      5  C   UNL d   1      41.919  49.128  31.124  0.00  0.00     0.223 A 
ATOM      6  C   UNL d   1      41.061  48.986  31.618  0.00  0.00     0.084 A 
ATOM      7  C   UNL d   1      40.239  48.703  31.122  0.00  0.00     0.096 A 
ATOM      8  C   UNL d   1      41.039  49.135  32.649  0.00  0.00     0.085 A 
ATOM      9  C   UNL d   1      39.338  48.551  31.624  0.00  0.00     0.075 A 
ATOM     10  C   UNL d   1      40.148  48.989  33.170  0.00  0.00     0.074 A 
ATOM     11  C   UNL d   1      39.293  48.695  32.654  0.00  0.00     0.071 A 
ENDROOT
BRANCH   3  12
ATOM     12  O   UNL d   1      42.812  49.131  29.640  0.00  0.00    -0.311 OA
BRANCH  12  13
ATOM     13  C   UNL d   1      43.587  48.518  29.796  0.00  0.00     0.298 A 
ATOM     14  O   UNL d   1      43.428  47.577  30.097  0.00  0.00    -0.351 OA
ATOM     15  C   UNL d   1      44.202  46.964  30.252  0.00  0.00     0.152 A 
ATOM     16  C   UNL d   1      45.136  47.292  30.107  0.00  0.00     0.178 A 
ATOM     17  C   UNL d   1      44.043  46.024  30.553  0.00  0.00     0.042 C 
ATOM     18  C   UNL d   1      45.295  48.232  29.807  0.00  0.00     0.183 A 
ATOM     19  C   UNL d   1      44.521  48.845  29.651  0.00  0.00     0.205 A 
BRANCH  16  20
ATOM     20  O   UNL d   1      45.910  46.678  30.263  0.00  0.00    -0.390 OA
ATOM     21  H   UNL d   1      46.083  46.538  30.842  0.00  0.00     0.210 HD
ENDBRANCH  16  20
BRANCH  18  22
ATOM     22  O   UNL d   1      46.229  48.559  29.662  0.00  0.00    -0.390 OA
ATOM     23  H   UNL d   1      46.579  48.309  29.216  0.00  0.00     0.210 HD
ENDBRANCH  18  22
BRANCH  19  24
ATOM     24  O   UNL d   1      44.680  49.785  29.350  0.00  0.00    -0.388 OA
ATOM     25  H   UNL d   1      44.230  50.099  29.062  0.00  0.00     0.210 HD
ENDBRANCH  19  24
ENDBRANCH  12  13
ENDBRANCH   3  12
BRANCH   4  26
ATOM     26  C   UNL d   1      41.170  48.566  28.649  0.00  0.00     0.001 A 
ATOM     27  C   UNL d   1      41.161  47.639  28.275  0.00  0.00     0.017 A 
ATOM     28  C   UNL d   1      41.197  47.500  27.285  0.00  0.00     0.037 A 
ATOM     29  C   UNL d   1      41.242  48.287  26.670  0.00  0.00     0.065 A 
ATOM     30  C   UNL d   1      41.250  49.214  27.045  0.00  0.00     0.037 A 
ATOM     31  C   UNL d   1      41.214  49.354  28.035  0.00  0.00     0.017 A 
BRANCH  29  32
ATOM     32  O   UNL d   1      41.278  48.147  25.681  0.00  0.00    -0.361 OA
ATOM     33  H   UNL d   1      41.068  47.618  25.435  0.00  0.00     0.217 HD
ENDBRANCH  29  32
ENDBRANCH   4  26
BRANCH   8  34
ATOM     34  O   UNL d   1      41.866  49.417  33.134  0.00  0.00    -0.360 OA
ATOM     35  H   UNL d   1      41.822  49.763  33.648  0.00  0.00     0.217 HD
ENDBRANCH   8  34
BRANCH  11  36
ATOM     36  O   UNL d   1      38.433  48.551  33.145  0.00  0.00    -0.361 OA
ATOM     37  H   UNL d   1      38.441  48.385  33.742  0.00  0.00     0.217 HD
ENDBRANCH  11  36
TORSDOF 9
ENDMDL
