MODEL 1
REMARK VINA RESULT:    -2.033      0.000      0.000
REMARK INTER + INTRA:          -0.629
REMARK INTER:                  -2.449
REMARK INTRA:                   1.820
REMARK UNBOUND:                 1.820
REMARK  5 active torsions:
REMARK  status: ('A' for Active; 'I' for Inactive)
REMARK    1  A    between atoms: O_2  and  C_13 
REMARK    2  A    between atoms: O_3  and  C_19 
REMARK    3  A    between atoms: O_5  and  C_17 
REMARK    4  A    between atoms: O_6  and  C_21 
REMARK    5  A    between atoms: C_8  and  C_10 
ROOT
ATOM      1  O   UNL d   1      41.003  37.049  43.303  0.00  0.00    -0.309 OA
ATOM      2  O   UNL d   1      39.998  37.941  40.621  0.00  0.00    -0.287 OA
ATOM      3  C   UNL d   1      40.686  38.316  42.165  0.00  0.00     0.081 A 
ATOM      4  C   UNL d   1      40.651  36.376  42.652  0.00  0.00     0.090 A 
ATOM      5  C   UNL d   1      41.021  38.019  43.060  0.00  0.00     0.095 A 
ATOM      6  C   UNL d   1      40.333  37.643  41.515  0.00  0.00     0.190 A 
ATOM      7  C   UNL d   1      40.316  36.674  41.758  0.00  0.00     0.094 A 
ATOM      8  C   UNL d   1      40.698  39.322  41.898  0.00  0.00     0.085 A 
ATOM      9  C   UNL d   1      41.391  38.707  43.748  0.00  0.00     0.075 A 
ATOM     10  C   UNL d   1      41.413  39.719  43.502  0.00  0.00     0.071 A 
ATOM     11  C   UNL d   1      41.064  40.029  42.571  0.00  0.00     0.074 A 
ENDROOT
BRANCH   4  12
ATOM     12  C   UNL d   1      40.633  35.407  42.896  0.00  0.00     0.001 A 
ATOM     13  C   UNL d   1      41.405  34.817  42.657  0.00  0.00     0.054 A 
ATOM     14  C   UNL d   1      41.388  33.848  42.901  0.00  0.00     0.102 A 
ATOM     15  C   UNL d   1      40.598  33.467  43.382  0.00  0.00     0.099 A 
ATOM     16  C   UNL d   1      39.826  34.056  43.621  0.00  0.00     0.040 A 
ATOM     17  C   UNL d   1      39.844  35.026  43.377  0.00  0.00     0.017 A 
BRANCH  14  18
ATOM     18  O   UNL d   1      42.160  33.258  42.663  0.00  0.00    -0.353 OA
ATOM     19  C   UNL d   1      42.949  33.639  42.180  0.00  0.00     0.210 C 
ENDBRANCH  14  18
BRANCH  15  20
ATOM     20  O   UNL d   1      40.581  32.497  43.626  0.00  0.00    -0.358 OA
ATOM     21  H   UNL d   1      40.507  32.068  43.184  0.00  0.00     0.217 HD
ENDBRANCH  15  20
ENDBRANCH   4  12
BRANCH   8  22
ATOM     22  O   UNL d   1      40.360  39.608  41.001  0.00  0.00    -0.360 OA
ATOM     23  H   UNL d   1      40.501  40.170  40.782  0.00  0.00     0.217 HD
ENDBRANCH   8  22
BRANCH  10  24
ATOM     24  O   UNL d   1      41.766  40.388  44.155  0.00  0.00    -0.361 OA
ATOM     25  H   UNL d   1      42.052  40.197  44.671  0.00  0.00     0.217 HD
ENDBRANCH  10  24
TORSDOF 5
ENDMDL
MODEL 2
REMARK VINA RESULT:    -1.120      2.020      2.261
REMARK INTER + INTRA:           0.471
REMARK INTER:                  -1.347
REMARK INTRA:                   1.819
REMARK UNBOUND:                 1.820
REMARK  5 active torsions:
REMARK  status: ('A' for Active; 'I' for Inactive)
REMARK    1  A    between atoms: O_2  and  C_13 
REMARK    2  A    between atoms: O_3  and  C_19 
REMARK    3  A    between atoms: O_5  and  C_17 
REMARK    4  A    between atoms: O_6  and  C_21 
REMARK    5  A    between atoms: C_8  and  C_10 
ROOT
ATOM      1  O   UNL d   1      40.662  35.450  42.057  0.00  0.00    -0.309 OA
ATOM      2  O   UNL d   1      40.128  37.550  39.981  0.00  0.00    -0.287 OA
ATOM      3  C   UNL d   1      40.629  37.116  41.582  0.00  0.00     0.081 A 
ATOM      4  C   UNL d   1      40.340  35.185  41.148  0.00  0.00     0.090 A 
ATOM      5  C   UNL d   1      40.807  36.416  42.273  0.00  0.00     0.095 A 
ATOM      6  C   UNL d   1      40.306  36.850  40.673  0.00  0.00     0.190 A 
ATOM      7  C   UNL d   1      40.162  35.885  40.456  0.00  0.00     0.094 A 
ATOM      8  C   UNL d   1      40.775  38.125  41.793  0.00  0.00     0.085 A 
ATOM      9  C   UNL d   1      41.143  36.677  43.224  0.00  0.00     0.075 A 
ATOM     10  C   UNL d   1      41.296  37.681  43.457  0.00  0.00     0.071 A 
ATOM     11  C   UNL d   1      41.110  38.409  42.737  0.00  0.00     0.074 A 
ENDROOT
BRANCH   4  12
ATOM     12  C   UNL d   1      40.196  34.219  40.931  0.00  0.00     0.001 A 
ATOM     13  C   UNL d   1      40.939  33.679  40.538  0.00  0.00     0.054 A 
ATOM     14  C   UNL d   1      40.795  32.713  40.321  0.00  0.00     0.102 A 
ATOM     15  C   UNL d   1      39.907  32.288  40.498  0.00  0.00     0.099 A 
ATOM     16  C   UNL d   1      39.164  32.829  40.892  0.00  0.00     0.040 A 
ATOM     17  C   UNL d   1      39.308  33.794  41.109  0.00  0.00     0.017 A 
BRANCH  14  18
ATOM     18  O   UNL d   1      41.538  32.173  39.927  0.00  0.00    -0.353 OA
ATOM     19  C   UNL d   1      42.432  32.592  39.768  0.00  0.00     0.210 C 
ENDBRANCH  14  18
BRANCH  15  20
ATOM     20  O   UNL d   1      39.763  31.323  40.281  0.00  0.00    -0.358 OA
ATOM     21  H   UNL d   1      39.722  31.141  39.690  0.00  0.00     0.217 HD
ENDBRANCH  15  20
ENDBRANCH   4  12
BRANCH   8  22
ATOM     22  O   UNL d   1      40.593  38.816  41.094  0.00  0.00    -0.360 OA
ATOM     23  H   UNL d   1      40.817  39.390  41.160  0.00  0.00     0.217 HD
ENDBRANCH   8  22
BRANCH  10  24
ATOM     24  O   UNL d   1      41.618  37.942  44.367  0.00  0.00    -0.361 OA
ATOM     25  H   UNL d   1      42.128  37.679  44.603  0.00  0.00     0.217 HD
ENDBRANCH  10  24
TORSDOF 5
ENDMDL
MODEL 3
REMARK VINA RESULT:    -0.865      6.132      7.501
REMARK INTER + INTRA:           0.778
REMARK INTER:                  -1.048
REMARK INTRA:                   1.826
REMARK UNBOUND:                 1.820
REMARK  5 active torsions:
REMARK  status: ('A' for Active; 'I' for Inactive)
REMARK    1  A    between atoms: O_2  and  C_13 
REMARK    2  A    between atoms: O_3  and  C_19 
REMARK    3  A    between atoms: O_5  and  C_17 
REMARK    4  A    between atoms: O_6  and  C_21 
REMARK    5  A    between atoms: C_8  and  C_10 
ROOT
ATOM      1  O   UNL d   1      43.726  34.618  37.276  0.00  0.00    -0.309 OA
ATOM      2  O   UNL d   1      41.611  36.727  37.557  0.00  0.00    -0.287 OA
ATOM      3  C   UNL d   1      42.701  35.590  38.278  0.00  0.00     0.081 A 
ATOM      4  C   UNL d   1      43.341  35.052  36.461  0.00  0.00     0.090 A 
ATOM      5  C   UNL d   1      43.406  34.887  38.184  0.00  0.00     0.095 A 
ATOM      6  C   UNL d   1      42.316  36.024  37.463  0.00  0.00     0.190 A 
ATOM      7  C   UNL d   1      42.636  35.755  36.555  0.00  0.00     0.094 A 
ATOM      8  C   UNL d   1      42.358  35.880  39.217  0.00  0.00     0.085 A 
ATOM      9  C   UNL d   1      43.816  34.426  39.023  0.00  0.00     0.075 A 
ATOM     10  C   UNL d   1      43.488  34.701  39.973  0.00  0.00     0.071 A 
ATOM     11  C   UNL d   1      42.754  35.432  40.070  0.00  0.00     0.074 A 
ENDROOT
BRANCH   4  12
ATOM     12  C   UNL d   1      43.661  34.783  35.553  0.00  0.00     0.001 A 
ATOM     13  C   UNL d   1      43.238  34.009  35.083  0.00  0.00     0.054 A 
ATOM     14  C   UNL d   1      43.558  33.740  34.174  0.00  0.00     0.102 A 
ATOM     15  C   UNL d   1      44.301  34.246  33.736  0.00  0.00     0.099 A 
ATOM     16  C   UNL d   1      44.724  35.020  34.206  0.00  0.00     0.040 A 
ATOM     17  C   UNL d   1      44.404  35.289  35.114  0.00  0.00     0.017 A 
BRANCH  14  18
ATOM     18  O   UNL d   1      43.135  32.965  33.704  0.00  0.00    -0.353 OA
ATOM     19  C   UNL d   1      42.513  32.359  34.199  0.00  0.00     0.210 C 
ENDBRANCH  14  18
BRANCH  15  20
ATOM     20  O   UNL d   1      44.621  33.977  32.827  0.00  0.00    -0.358 OA
ATOM     21  H   UNL d   1      44.251  33.649  32.453  0.00  0.00     0.217 HD
ENDBRANCH  15  20
ENDBRANCH   4  12
BRANCH   8  22
ATOM     22  O   UNL d   1      41.652  36.584  39.299  0.00  0.00    -0.360 OA
ATOM     23  H   UNL d   1      41.797  37.142  39.528  0.00  0.00     0.217 HD
ENDBRANCH   8  22
BRANCH  10  24
ATOM     24  O   UNL d   1      43.875  34.264  40.785  0.00  0.00    -0.361 OA
ATOM     25  H   UNL d   1      44.490  34.244  40.862  0.00  0.00     0.217 HD
ENDBRANCH  10  24
TORSDOF 5
ENDMDL
MODEL 4
REMARK VINA RESULT:    -0.678      5.033      7.307
REMARK INTER + INTRA:           1.004
REMARK INTER:                  -0.820
REMARK INTRA:                   1.823
REMARK UNBOUND:                 1.820
REMARK  5 active torsions:
REMARK  status: ('A' for Active; 'I' for Inactive)
REMARK    1  A    between atoms: O_2  and  C_13 
REMARK    2  A    between atoms: O_3  and  C_19 
REMARK    3  A    between atoms: O_5  and  C_17 
REMARK    4  A    between atoms: O_6  and  C_21 
REMARK    5  A    between atoms: C_8  and  C_10 
ROOT
ATOM      1  O   UNL d   1      43.147  34.093  37.976  0.00  0.00    -0.309 OA
ATOM      2  O   UNL d   1      42.554  35.955  40.252  0.00  0.00    -0.287 OA
ATOM      3  C   UNL d   1      42.514  34.366  39.565  0.00  0.00     0.081 A 
ATOM      4  C   UNL d   1      43.385  35.062  37.905  0.00  0.00     0.090 A 
ATOM      5  C   UNL d   1      42.712  33.745  38.806  0.00  0.00     0.095 A 
ATOM      6  C   UNL d   1      42.752  35.335  39.494  0.00  0.00     0.190 A 
ATOM      7  C   UNL d   1      43.187  35.683  38.663  0.00  0.00     0.094 A 
ATOM      8  C   UNL d   1      42.061  34.018  40.436  0.00  0.00     0.085 A 
ATOM      9  C   UNL d   1      42.470  32.734  38.866  0.00  0.00     0.075 A 
ATOM     10  C   UNL d   1      42.016  32.364  39.727  0.00  0.00     0.071 A 
ATOM     11  C   UNL d   1      41.811  33.010  40.517  0.00  0.00     0.074 A 
ENDROOT
BRANCH   4  12
ATOM     12  C   UNL d   1      43.820  35.410  37.074  0.00  0.00     0.001 A 
ATOM     13  C   UNL d   1      43.260  35.786  36.336  0.00  0.00     0.054 A 
ATOM     14  C   UNL d   1      43.696  36.134  35.506  0.00  0.00     0.102 A 
ATOM     15  C   UNL d   1      44.691  36.106  35.414  0.00  0.00     0.099 A 
ATOM     16  C   UNL d   1      45.251  35.730  36.152  0.00  0.00     0.040 A 
ATOM     17  C   UNL d   1      44.816  35.382  36.983  0.00  0.00     0.017 A 
BRANCH  14  18
ATOM     18  O   UNL d   1      43.136  36.510  34.768  0.00  0.00    -0.353 OA
ATOM     19  C   UNL d   1      42.162  36.682  34.916  0.00  0.00     0.210 C 
ENDBRANCH  14  18
BRANCH  15  20
ATOM     20  O   UNL d   1      45.127  36.454  34.584  0.00  0.00    -0.358 OA
ATOM     21  H   UNL d   1      45.078  36.139  34.052  0.00  0.00     0.217 HD
ENDBRANCH  15  20
ENDBRANCH   4  12
BRANCH   8  22
ATOM     22  O   UNL d   1      41.868  34.647  41.188  0.00  0.00    -0.360 OA
ATOM     23  H   UNL d   1      42.325  34.828  41.566  0.00  0.00     0.217 HD
ENDBRANCH   8  22
BRANCH  10  24
ATOM     24  O   UNL d   1      41.780  31.394  39.795  0.00  0.00    -0.361 OA
ATOM     25  H   UNL d   1      42.198  30.988  40.006  0.00  0.00     0.217 HD
ENDBRANCH  10  24
TORSDOF 5
ENDMDL
MODEL 5
REMARK VINA RESULT:     0.000     93.652     95.553
REMARK INTER + INTRA:           1.820
REMARK INTER:                   0.000
REMARK INTRA:                   1.820
REMARK UNBOUND:                 1.820
REMARK  5 active torsions:
REMARK  status: ('A' for Active; 'I' for Inactive)
REMARK    1  A    between atoms: O_2  and  C_13 
REMARK    2  A    between atoms: O_3  and  C_19 
REMARK    3  A    between atoms: O_5  and  C_17 
REMARK    4  A    between atoms: O_6  and  C_21 
REMARK    5  A    between atoms: C_8  and  C_10 
ROOT
ATOM      1  O   UNL d   1     -29.792 -15.077   4.216  0.00  0.00    -0.309 OA
ATOM      2  O   UNL d   1     -28.121 -13.826   6.371  0.00  0.00    -0.287 OA
ATOM      3  C   UNL d   1     -28.255 -14.524   4.791  0.00  0.00     0.081 A 
ATOM      4  C   UNL d   1     -30.215 -14.797   5.077  0.00  0.00     0.090 A 
ATOM      5  C   UNL d   1     -28.812 -14.941   4.073  0.00  0.00     0.095 A 
ATOM      6  C   UNL d   1     -28.678 -14.243   5.652  0.00  0.00     0.190 A 
ATOM      7  C   UNL d   1     -29.659 -14.380   5.795  0.00  0.00     0.094 A 
ATOM      8  C   UNL d   1     -27.233 -14.376   4.656  0.00  0.00     0.085 A 
ATOM      9  C   UNL d   1     -28.385 -15.238   3.170  0.00  0.00     0.075 A 
ATOM     10  C   UNL d   1     -27.365 -15.099   3.014  0.00  0.00     0.071 A 
ATOM     11  C   UNL d   1     -26.785 -14.665   3.761  0.00  0.00     0.074 A 
ENDROOT
BRANCH   4  12
ATOM     12  C   UNL d   1     -31.196 -14.933   5.220  0.00  0.00     0.001 A 
ATOM     13  C   UNL d   1     -31.527 -15.778   5.641  0.00  0.00     0.054 A 
ATOM     14  C   UNL d   1     -32.507 -15.914   5.784  0.00  0.00     0.102 A 
ATOM     15  C   UNL d   1     -33.156 -15.206   5.506  0.00  0.00     0.099 A 
ATOM     16  C   UNL d   1     -32.825 -14.362   5.086  0.00  0.00     0.040 A 
ATOM     17  C   UNL d   1     -31.845 -14.225   4.942  0.00  0.00     0.017 A 
BRANCH  14  18
ATOM     18  O   UNL d   1     -32.838 -16.759   6.205  0.00  0.00    -0.353 OA
ATOM     19  C   UNL d   1     -32.189 -17.467   6.483  0.00  0.00     0.210 C 
ENDBRANCH  14  18
BRANCH  15  20
ATOM     20  O   UNL d   1     -34.136 -15.343   5.650  0.00  0.00    -0.358 OA
ATOM     21  H   UNL d   1     -34.369 -15.341   6.224  0.00  0.00     0.217 HD
ENDBRANCH  15  20
ENDBRANCH   4  12
BRANCH   8  22
ATOM     22  O   UNL d   1     -26.686 -13.958   5.381  0.00  0.00    -0.360 OA
ATOM     23  H   UNL d   1     -26.951 -13.805   5.920  0.00  0.00     0.217 HD
ENDBRANCH   8  22
BRANCH  10  24
ATOM     24  O   UNL d   1     -26.945 -15.381   2.150  0.00  0.00    -0.361 OA
ATOM     25  H   UNL d   1     -27.075 -15.938   1.910  0.00  0.00     0.217 HD
ENDBRANCH  10  24
TORSDOF 5
ENDMDL
