MODEL 1
REMARK VINA RESULT:    -8.246      0.000      0.000
REMARK INTER + INTRA:          -5.414
REMARK INTER:                 -10.513
REMARK INTRA:                   5.100
REMARK UNBOUND:                 5.242
REMARK  6 active torsions:
REMARK  status: ('A' for Active; 'I' for Inactive)
REMARK    1  A    between atoms: O_2  and  C_15 
REMARK    2  A    between atoms: O_3  and  C_17 
REMARK    3  A    between atoms: O_4  and  C_11 
REMARK    4  A    between atoms: O_6  and  C_22 
REMARK    5  A    between atoms: O_7  and  C_20 
REMARK    6  A    between atoms: C_10  and  C_13 
ROOT
ATOM      1  O   UNL d   1       1.888  38.149 -18.888  0.00  0.00    -0.309 OA
ATOM      2  O   UNL d   1       2.765  35.828 -17.082  0.00  0.00    -0.287 OA
ATOM      3  C   UNL d   1       2.719  36.594 -18.677  0.00  0.00     0.084 A 
ATOM      4  C   UNL d   1       2.435  37.348 -19.268  0.00  0.00     0.096 A 
ATOM      5  C   UNL d   1       1.633  38.164 -17.878  0.00  0.00     0.090 A 
ATOM      6  C   UNL d   1       3.244  35.832 -19.056  0.00  0.00     0.119 A 
ATOM      7  C   UNL d   1       2.476  36.588 -17.664  0.00  0.00     0.190 A 
ATOM      8  C   UNL d   1       2.676  37.341 -20.239  0.00  0.00     0.078 A 
ATOM      9  C   UNL d   1       3.485  35.824 -20.026  0.00  0.00     0.136 A 
ATOM     10  C   UNL d   1       1.929  37.378 -17.262  0.00  0.00     0.094 A 
ATOM     11  C   UNL d   1       3.201  36.579 -20.618  0.00  0.00     0.107 A 
ENDROOT
BRANCH   5  12
ATOM     12  C   UNL d   1       1.108  38.927 -17.503  0.00  0.00     0.001 A 
ATOM     13  C   UNL d   1       1.511  39.842 -17.469  0.00  0.00     0.053 A 
ATOM     14  C   UNL d   1       0.986  40.606 -17.093  0.00  0.00     0.099 A 
ATOM     15  C   UNL d   1       0.058  40.455 -16.751  0.00  0.00     0.101 A 
ATOM     16  C   UNL d   1      -0.344  39.540 -16.785  0.00  0.00     0.040 A 
ATOM     17  C   UNL d   1       0.181  38.777 -17.161  0.00  0.00     0.017 A 
BRANCH  14  18
ATOM     18  O   UNL d   1       1.388  41.521 -17.059  0.00  0.00    -0.358 OA
ATOM     19  H   UNL d   1       1.479  41.800 -16.514  0.00  0.00     0.217 HD
ENDBRANCH  14  18
BRANCH  15  20
ATOM     20  O   UNL d   1      -0.467  41.218 -16.376  0.00  0.00    -0.353 OA
ATOM     21  C   UNL d   1      -1.389  41.065 -16.021  0.00  0.00     0.210 C 
ENDBRANCH  15  20
ENDBRANCH   5  12
BRANCH   6  22
ATOM     22  O   UNL d   1       3.528  35.077 -18.464  0.00  0.00    -0.357 OA
ATOM     23  H   UNL d   1       4.127  35.003 -18.322  0.00  0.00     0.218 HD
ENDBRANCH   6  22
BRANCH  11  24
ATOM     24  O   UNL d   1       3.442  36.571 -21.588  0.00  0.00    -0.353 OA
ATOM     25  C   UNL d   1       3.196  37.346 -22.170  0.00  0.00     0.210 C 
ENDBRANCH  11  24
BRANCH   9  26
ATOM     26  O   UNL d   1       4.010  35.062 -20.405  0.00  0.00    -0.351 OA
ATOM     27  C   UNL d   1       5.001  35.022 -20.271  0.00  0.00     0.210 C 
ENDBRANCH   9  26
TORSDOF 6
ENDMDL
MODEL 2
REMARK VINA RESULT:    -8.129      1.662      5.924
REMARK INTER + INTRA:          -5.263
REMARK INTER:                 -10.273
REMARK INTRA:                   5.010
REMARK UNBOUND:                 5.242
REMARK  6 active torsions:
REMARK  status: ('A' for Active; 'I' for Inactive)
REMARK    1  A    between atoms: O_2  and  C_15 
REMARK    2  A    between atoms: O_3  and  C_17 
REMARK    3  A    between atoms: O_4  and  C_11 
REMARK    4  A    between atoms: O_6  and  C_22 
REMARK    5  A    between atoms: O_7  and  C_20 
REMARK    6  A    between atoms: C_10  and  C_13 
ROOT
ATOM      1  O   UNL d   1       2.658  36.885 -20.038  0.00  0.00    -0.309 OA
ATOM      2  O   UNL d   1       2.664  35.957 -17.113  0.00  0.00    -0.287 OA
ATOM      3  C   UNL d   1       1.950  36.926 -18.410  0.00  0.00     0.084 A 
ATOM      4  C   UNL d   1       1.945  37.231 -19.362  0.00  0.00     0.096 A 
ATOM      5  C   UNL d   1       3.387  36.214 -19.717  0.00  0.00     0.090 A 
ATOM      6  C   UNL d   1       1.258  37.266 -17.772  0.00  0.00     0.119 A 
ATOM      7  C   UNL d   1       2.669  36.255 -18.068  0.00  0.00     0.190 A 
ATOM      8  C   UNL d   1       1.248  37.875 -19.677  0.00  0.00     0.078 A 
ATOM      9  C   UNL d   1       0.562  37.910 -18.088  0.00  0.00     0.136 A 
ATOM     10  C   UNL d   1       3.392  35.896 -18.725  0.00  0.00     0.094 A 
ATOM     11  C   UNL d   1       0.557  38.215 -19.040  0.00  0.00     0.107 A 
ENDROOT
BRANCH   5  12
ATOM     12  C   UNL d   1       4.077  35.876 -20.357  0.00  0.00     0.001 A 
ATOM     13  C   UNL d   1       3.874  35.091 -20.942  0.00  0.00     0.053 A 
ATOM     14  C   UNL d   1       4.564  34.752 -21.582  0.00  0.00     0.099 A 
ATOM     15  C   UNL d   1       5.457  35.199 -21.637  0.00  0.00     0.101 A 
ATOM     16  C   UNL d   1       5.660  35.985 -21.052  0.00  0.00     0.040 A 
ATOM     17  C   UNL d   1       4.970  36.322 -20.412  0.00  0.00     0.017 A 
BRANCH  14  18
ATOM     18  O   UNL d   1       4.362  33.967 -22.168  0.00  0.00    -0.358 OA
ATOM     19  H   UNL d   1       3.782  33.753 -22.211  0.00  0.00     0.217 HD
ENDBRANCH  14  18
BRANCH  15  20
ATOM     20  O   UNL d   1       6.147  34.862 -22.277  0.00  0.00    -0.353 OA
ATOM     21  C   UNL d   1       7.080  35.219 -22.241  0.00  0.00     0.210 C 
ENDBRANCH  15  20
ENDBRANCH   5  12
BRANCH   6  22
ATOM     22  O   UNL d   1       1.263  36.961 -16.820  0.00  0.00    -0.357 OA
ATOM     23  H   UNL d   1       1.585  37.277 -16.395  0.00  0.00     0.218 HD
ENDBRANCH   6  22
BRANCH  11  24
ATOM     24  O   UNL d   1      -0.140  38.860 -19.355  0.00  0.00    -0.353 OA
ATOM     25  C   UNL d   1      -0.167  39.137 -20.315  0.00  0.00     0.210 C 
ENDBRANCH  11  24
BRANCH   9  26
ATOM     26  O   UNL d   1      -0.130  38.250 -17.450  0.00  0.00    -0.351 OA
ATOM     27  C   UNL d   1       0.097  38.985 -16.811  0.00  0.00     0.210 C 
ENDBRANCH   9  26
TORSDOF 6
ENDMDL
MODEL 3
REMARK VINA RESULT:    -8.114      1.521      2.566
REMARK INTER + INTRA:          -5.243
REMARK INTER:                 -10.592
REMARK INTRA:                   5.349
REMARK UNBOUND:                 5.242
REMARK  6 active torsions:
REMARK  status: ('A' for Active; 'I' for Inactive)
REMARK    1  A    between atoms: O_2  and  C_15 
REMARK    2  A    between atoms: O_3  and  C_17 
REMARK    3  A    between atoms: O_4  and  C_11 
REMARK    4  A    between atoms: O_6  and  C_22 
REMARK    5  A    between atoms: O_7  and  C_20 
REMARK    6  A    between atoms: C_10  and  C_13 
ROOT
ATOM      1  O   UNL d   1       2.692  36.757 -20.032  0.00  0.00    -0.309 OA
ATOM      2  O   UNL d   1       4.165  34.192 -19.215  0.00  0.00    -0.287 OA
ATOM      3  C   UNL d   1       3.745  35.389 -20.449  0.00  0.00     0.084 A 
ATOM      4  C   UNL d   1       3.266  36.224 -20.719  0.00  0.00     0.096 A 
ATOM      5  C   UNL d   1       2.615  36.415 -19.051  0.00  0.00     0.090 A 
ATOM      6  C   UNL d   1       4.292  34.888 -21.119  0.00  0.00     0.119 A 
ATOM      7  C   UNL d   1       3.682  35.029 -19.474  0.00  0.00     0.190 A 
ATOM      8  C   UNL d   1       3.335  36.559 -21.659  0.00  0.00     0.078 A 
ATOM      9  C   UNL d   1       4.361  35.222 -22.059  0.00  0.00     0.136 A 
ATOM     10  C   UNL d   1       3.114  35.545 -18.770  0.00  0.00     0.094 A 
ATOM     11  C   UNL d   1       3.883  36.057 -22.329  0.00  0.00     0.107 A 
ENDROOT
BRANCH   5  12
ATOM     12  C   UNL d   1       2.067  36.919 -18.384  0.00  0.00     0.001 A 
ATOM     13  C   UNL d   1       2.306  36.886 -17.414  0.00  0.00     0.053 A 
ATOM     14  C   UNL d   1       1.758  37.390 -16.746  0.00  0.00     0.099 A 
ATOM     15  C   UNL d   1       0.970  37.926 -17.049  0.00  0.00     0.101 A 
ATOM     16  C   UNL d   1       0.731  37.959 -18.019  0.00  0.00     0.040 A 
ATOM     17  C   UNL d   1       1.279  37.455 -18.686  0.00  0.00     0.017 A 
BRANCH  14  18
ATOM     18  O   UNL d   1       1.997  37.357 -15.775  0.00  0.00    -0.358 OA
ATOM     19  H   UNL d   1       1.586  37.537 -15.348  0.00  0.00     0.217 HD
ENDBRANCH  14  18
BRANCH  15  20
ATOM     20  O   UNL d   1       0.422  38.429 -16.381  0.00  0.00    -0.353 OA
ATOM     21  C   UNL d   1      -0.123  39.215 -16.672  0.00  0.00     0.210 C 
ENDBRANCH  15  20
ENDBRANCH   5  12
BRANCH   6  22
ATOM     22  O   UNL d   1       4.771  34.052 -20.849  0.00  0.00    -0.357 OA
ATOM     23  H   UNL d   1       5.196  33.803 -21.225  0.00  0.00     0.218 HD
ENDBRANCH   6  22
BRANCH  11  24
ATOM     24  O   UNL d   1       3.952  36.392 -23.269  0.00  0.00    -0.353 OA
ATOM     25  C   UNL d   1       3.276  37.040 -23.620  0.00  0.00     0.210 C 
ENDBRANCH  11  24
BRANCH   9  26
ATOM     26  O   UNL d   1       4.909  34.721 -22.729  0.00  0.00    -0.351 OA
ATOM     27  C   UNL d   1       5.907  34.783 -22.706  0.00  0.00     0.210 C 
ENDBRANCH   9  26
TORSDOF 6
ENDMDL
MODEL 4
REMARK VINA RESULT:    -7.778      1.684      6.436
REMARK INTER + INTRA:          -4.810
REMARK INTER:                  -9.838
REMARK INTRA:                   5.028
REMARK UNBOUND:                 5.242
REMARK  6 active torsions:
REMARK  status: ('A' for Active; 'I' for Inactive)
REMARK    1  A    between atoms: O_2  and  C_15 
REMARK    2  A    between atoms: O_3  and  C_17 
REMARK    3  A    between atoms: O_4  and  C_11 
REMARK    4  A    between atoms: O_6  and  C_22 
REMARK    5  A    between atoms: O_7  and  C_20 
REMARK    6  A    between atoms: C_10  and  C_13 
ROOT
ATOM      1  O   UNL d   1       1.462  40.408 -17.181  0.00  0.00    -0.309 OA
ATOM      2  O   UNL d   1      -1.473  40.581 -16.302  0.00  0.00    -0.287 OA
ATOM      3  C   UNL d   1       0.091  41.362 -16.578  0.00  0.00     0.084 A 
ATOM      4  C   UNL d   1       1.047  41.309 -16.864  0.00  0.00     0.096 A 
ATOM      5  C   UNL d   1       0.872  39.550 -17.202  0.00  0.00     0.090 A 
ATOM      6  C   UNL d   1      -0.294  42.234 -16.275  0.00  0.00     0.119 A 
ATOM      7  C   UNL d   1      -0.518  40.516 -16.590  0.00  0.00     0.190 A 
ATOM      8  C   UNL d   1       1.620  42.129 -16.847  0.00  0.00     0.078 A 
ATOM      9  C   UNL d   1       0.279  43.054 -16.259  0.00  0.00     0.136 A 
ATOM     10  C   UNL d   1      -0.125  39.605 -16.904  0.00  0.00     0.094 A 
ATOM     11  C   UNL d   1       1.236  43.001 -16.544  0.00  0.00     0.107 A 
ENDROOT
BRANCH   5  12
ATOM     12  C   UNL d   1       1.259  38.679 -17.505  0.00  0.00     0.001 A 
ATOM     13  C   UNL d   1       1.570  38.009 -16.831  0.00  0.00     0.053 A 
ATOM     14  C   UNL d   1       1.957  37.138 -17.133  0.00  0.00     0.099 A 
ATOM     15  C   UNL d   1       2.035  36.938 -18.110  0.00  0.00     0.101 A 
ATOM     16  C   UNL d   1       1.724  37.608 -18.784  0.00  0.00     0.040 A 
ATOM     17  C   UNL d   1       1.337  38.479 -18.481  0.00  0.00     0.017 A 
BRANCH  14  18
ATOM     18  O   UNL d   1       2.268  36.467 -16.460  0.00  0.00    -0.358 OA
ATOM     19  H   UNL d   1       2.449  36.652 -15.897  0.00  0.00     0.217 HD
ENDBRANCH  14  18
BRANCH  15  20
ATOM     20  O   UNL d   1       2.422  36.068 -18.413  0.00  0.00    -0.353 OA
ATOM     21  C   UNL d   1       2.597  35.909 -19.384  0.00  0.00     0.210 C 
ENDBRANCH  15  20
ENDBRANCH   5  12
BRANCH   6  22
ATOM     22  O   UNL d   1      -1.251  42.286 -15.990  0.00  0.00    -0.357 OA
ATOM     23  H   UNL d   1      -1.425  42.046 -15.446  0.00  0.00     0.218 HD
ENDBRANCH   6  22
BRANCH  11  24
ATOM     24  O   UNL d   1       1.808  43.821 -16.528  0.00  0.00    -0.353 OA
ATOM     25  C   UNL d   1       2.798  43.737 -16.410  0.00  0.00     0.210 C 
ENDBRANCH  11  24
BRANCH   9  26
ATOM     26  O   UNL d   1      -0.106  43.926 -15.956  0.00  0.00    -0.351 OA
ATOM     27  C   UNL d   1      -0.659  44.473 -16.584  0.00  0.00     0.210 C 
ENDBRANCH   9  26
TORSDOF 6
ENDMDL
MODEL 5
REMARK VINA RESULT:    -7.644     13.639     16.429
REMARK INTER + INTRA:          -4.636
REMARK INTER:                  -9.693
REMARK INTRA:                   5.056
REMARK UNBOUND:                 5.242
REMARK  6 active torsions:
REMARK  status: ('A' for Active; 'I' for Inactive)
REMARK    1  A    between atoms: O_2  and  C_15 
REMARK    2  A    between atoms: O_3  and  C_17 
REMARK    3  A    between atoms: O_4  and  C_11 
REMARK    4  A    between atoms: O_6  and  C_22 
REMARK    5  A    between atoms: O_7  and  C_20 
REMARK    6  A    between atoms: C_10  and  C_13 
ROOT
ATOM      1  O   UNL d   1     -10.563  42.037 -10.283  0.00  0.00    -0.309 OA
ATOM      2  O   UNL d   1     -12.048  41.683  -7.621  0.00  0.00    -0.287 OA
ATOM      3  C   UNL d   1     -10.774  41.180  -8.741  0.00  0.00     0.084 A 
ATOM      4  C   UNL d   1     -10.288  41.292  -9.608  0.00  0.00     0.096 A 
ATOM      5  C   UNL d   1     -11.356  42.672 -10.052  0.00  0.00     0.090 A 
ATOM      6  C   UNL d   1     -10.498  40.461  -8.103  0.00  0.00     0.119 A 
ATOM      7  C   UNL d   1     -11.569  41.804  -8.490  0.00  0.00     0.190 A 
ATOM      8  C   UNL d   1      -9.526  40.686  -9.836  0.00  0.00     0.078 A 
ATOM      9  C   UNL d   1      -9.737  39.855  -8.331  0.00  0.00     0.136 A 
ATOM     10  C   UNL d   1     -11.862  42.555  -9.149  0.00  0.00     0.094 A 
ATOM     11  C   UNL d   1      -9.251  39.967  -9.198  0.00  0.00     0.107 A 
ENDROOT
BRANCH   5  12
ATOM     12  C   UNL d   1     -11.629  43.389 -10.693  0.00  0.00     0.001 A 
ATOM     13  C   UNL d   1     -12.314  43.198 -11.396  0.00  0.00     0.053 A 
ATOM     14  C   UNL d   1     -12.588  43.915 -12.037  0.00  0.00     0.099 A 
ATOM     15  C   UNL d   1     -12.175  44.824 -11.974  0.00  0.00     0.101 A 
ATOM     16  C   UNL d   1     -11.490  45.016 -11.272  0.00  0.00     0.040 A 
ATOM     17  C   UNL d   1     -11.217  44.298 -10.631  0.00  0.00     0.017 A 
BRANCH  14  18
ATOM     18  O   UNL d   1     -13.273  43.724 -12.740  0.00  0.00    -0.358 OA
ATOM     19  H   UNL d   1     -13.358  44.123 -13.206  0.00  0.00     0.217 HD
ENDBRANCH  14  18
BRANCH  15  20
ATOM     20  O   UNL d   1     -12.448  45.542 -12.615  0.00  0.00    -0.353 OA
ATOM     21  C   UNL d   1     -12.013  46.441 -12.575  0.00  0.00     0.210 C 
ENDBRANCH  15  20
ENDBRANCH   5  12
BRANCH   6  22
ATOM     22  O   UNL d   1     -10.984  40.349  -7.236  0.00  0.00    -0.357 OA
ATOM     23  H   UNL d   1     -10.776  39.946  -6.814  0.00  0.00     0.218 HD
ENDBRANCH   6  22
BRANCH  11  24
ATOM     24  O   UNL d   1      -8.489  39.361  -9.427  0.00  0.00    -0.353 OA
ATOM     25  C   UNL d   1      -7.897  39.573 -10.204  0.00  0.00     0.210 C 
ENDBRANCH  11  24
BRANCH   9  26
ATOM     26  O   UNL d   1      -9.461  39.136  -7.693  0.00  0.00    -0.351 OA
ATOM     27  C   UNL d   1      -8.956  39.372  -6.863  0.00  0.00     0.210 C 
ENDBRANCH   9  26
TORSDOF 6
ENDMDL
