MODEL 1
REMARK VINA RESULT:   -10.745      0.000      0.000
REMARK INTER + INTRA:          -5.958
REMARK INTER:                 -14.576
REMARK INTRA:                   8.618
REMARK UNBOUND:                 8.556
REMARK  9 active torsions:
REMARK  status: ('A' for Active; 'I' for Inactive)
REMARK    1  A    between atoms: O_3  and  C_17 
REMARK    2  A    between atoms: O_4  and  C_18 
REMARK    3  A    between atoms: O_5  and  C_19 
REMARK    4  A    between atoms: O_7  and  C_32 
REMARK    5  A    between atoms: O_9  and  C_36 
REMARK    6  A    between atoms: O_10  and  C_40 
REMARK    7  A    between atoms: C_11  and  C_13 
REMARK    8  A    between atoms: C_15  and  C_20 
REMARK    9  A    between atoms: C_22  and  C_29 
ROOT
ATOM      1  O   UNL d   1       3.554  37.054 -20.970  0.00  0.00    -0.308 OA
ATOM      2  O   UNL d   1       1.641  37.751 -18.674  0.00  0.00    -0.287 OA
ATOM      3  C   UNL d   1       4.164  35.717 -20.000  0.00  0.00     0.045 A 
ATOM      4  C   UNL d   1       3.541  36.494 -20.091  0.00  0.00     0.107 A 
ATOM      5  C   UNL d   1       2.916  36.724 -19.345  0.00  0.00     0.082 A 
ATOM      6  C   UNL d   1       4.162  35.171 -19.163  0.00  0.00     0.082 A 
ATOM      7  C   UNL d   1       2.914  36.177 -18.508  0.00  0.00     0.085 A 
ATOM      8  C   UNL d   1       3.537  35.401 -18.417  0.00  0.00     0.075 A 
ATOM      9  C   UNL d   1       2.908  37.864 -21.072  0.00  0.00     0.090 A 
ATOM     10  C   UNL d   1       2.261  37.530 -19.427  0.00  0.00     0.190 A 
ATOM     11  C   UNL d   1       2.257  38.104 -20.295  0.00  0.00     0.094 A 
ENDROOT
BRANCH   3  12
ATOM     12  C   UNL d   1       4.789  35.487 -20.746  0.00  0.00     0.014 A 
ATOM     13  C   UNL d   1       4.494  34.867 -21.473  0.00  0.00     0.029 A 
ATOM     14  C   UNL d   1       5.119  34.637 -22.218  0.00  0.00    -0.001 A 
ATOM     15  C   UNL d   1       6.039  35.027 -22.238  0.00  0.00     0.017 A 
ATOM     16  C   UNL d   1       6.335  35.647 -21.511  0.00  0.00     0.038 A 
ATOM     17  C   UNL d   1       5.710  35.877 -20.765  0.00  0.00     0.076 A 
BRANCH  14  18
ATOM     18  C   UNL d   1       4.823  34.017 -22.945  0.00  0.00     0.090 A 
ATOM     19  O   UNL d   1       5.393  33.235 -23.198  0.00  0.00    -0.309 OA
ATOM     20  C   UNL d   1       5.097  32.615 -23.924  0.00  0.00     0.095 A 
ATOM     21  C   UNL d   1       4.232  32.777 -24.399  0.00  0.00     0.081 A 
ATOM     22  C   UNL d   1       5.702  31.804 -24.176  0.00  0.00     0.075 A 
ATOM     23  C   UNL d   1       3.662  33.559 -24.146  0.00  0.00     0.190 A 
ATOM     24  C   UNL d   1       3.911  32.140 -25.158  0.00  0.00     0.085 A 
ATOM     25  O   UNL d   1       2.797  33.721 -24.620  0.00  0.00    -0.287 OA
ATOM     26  C   UNL d   1       3.958  34.179 -23.419  0.00  0.00     0.094 A 
ATOM     27  C   UNL d   1       4.499  31.323 -25.426  0.00  0.00     0.074 A 
ATOM     28  C   UNL d   1       5.401  31.154 -24.932  0.00  0.00     0.071 A 
BRANCH  24  29
ATOM     29  O   UNL d   1       3.044  32.311 -25.625  0.00  0.00    -0.360 OA
ATOM     30  H   UNL d   1       2.979  32.159 -26.223  0.00  0.00     0.217 HD
ENDBRANCH  24  29
BRANCH  28  31
ATOM     31  O   UNL d   1       5.974  30.373 -25.182  0.00  0.00    -0.361 OA
ATOM     32  H   UNL d   1       6.557  30.464 -25.371  0.00  0.00     0.217 HD
ENDBRANCH  28  31
ENDBRANCH  14  18
BRANCH  17  33
ATOM     33  O   UNL d   1       6.005  36.497 -20.038  0.00  0.00    -0.360 OA
ATOM     34  H   UNL d   1       5.592  36.719 -19.633  0.00  0.00     0.217 HD
ENDBRANCH  17  33
ENDBRANCH   3  12
BRANCH   6  35
ATOM     35  O   UNL d   1       4.786  34.394 -19.071  0.00  0.00    -0.360 OA
ATOM     36  H   UNL d   1       4.756  34.030 -18.570  0.00  0.00     0.217 HD
ENDBRANCH   6  35
BRANCH   9  37
ATOM     37  C   UNL d   1       2.913  38.408 -21.912  0.00  0.00    -0.002 A 
ATOM     38  C   UNL d   1       3.258  39.347 -21.896  0.00  0.00     0.017 A 
ATOM     39  C   UNL d   1       3.263  39.892 -22.734  0.00  0.00     0.037 A 
ATOM     40  C   UNL d   1       2.924  39.497 -23.588  0.00  0.00     0.065 A 
ATOM     41  C   UNL d   1       2.580  38.558 -23.604  0.00  0.00     0.037 A 
ATOM     42  C   UNL d   1       2.575  38.014 -22.765  0.00  0.00     0.017 A 
BRANCH  40  43
ATOM     43  O   UNL d   1       2.929  40.042 -24.428  0.00  0.00    -0.361 OA
ATOM     44  H   UNL d   1       3.468  40.190 -24.698  0.00  0.00     0.217 HD
ENDBRANCH  40  43
ENDBRANCH   9  37
BRANCH   7  45
ATOM     45  O   UNL d   1       2.289  36.407 -17.762  0.00  0.00    -0.360 OA
ATOM     46  H   UNL d   1       1.838  36.823 -17.853  0.00  0.00     0.217 HD
ENDBRANCH   7  45
TORSDOF 9
ENDMDL
MODEL 2
REMARK VINA RESULT:   -10.331      2.311      6.488
REMARK INTER + INTRA:          -5.398
REMARK INTER:                 -14.070
REMARK INTRA:                   8.671
REMARK UNBOUND:                 8.556
REMARK  9 active torsions:
REMARK  status: ('A' for Active; 'I' for Inactive)
REMARK    1  A    between atoms: O_3  and  C_17 
REMARK    2  A    between atoms: O_4  and  C_18 
REMARK    3  A    between atoms: O_5  and  C_19 
REMARK    4  A    between atoms: O_7  and  C_32 
REMARK    5  A    between atoms: O_9  and  C_36 
REMARK    6  A    between atoms: O_10  and  C_40 
REMARK    7  A    between atoms: C_11  and  C_13 
REMARK    8  A    between atoms: C_15  and  C_20 
REMARK    9  A    between atoms: C_22  and  C_29 
ROOT
ATOM      1  O   UNL d   1       4.785  35.710 -21.658  0.00  0.00    -0.308 OA
ATOM      2  O   UNL d   1       7.730  35.177 -22.341  0.00  0.00    -0.287 OA
ATOM      3  C   UNL d   1       5.203  35.592 -19.952  0.00  0.00     0.045 A 
ATOM      4  C   UNL d   1       5.493  35.560 -20.909  0.00  0.00     0.107 A 
ATOM      5  C   UNL d   1       6.452  35.387 -21.135  0.00  0.00     0.082 A 
ATOM      6  C   UNL d   1       5.872  35.450 -19.222  0.00  0.00     0.082 A 
ATOM      7  C   UNL d   1       7.120  35.245 -20.405  0.00  0.00     0.085 A 
ATOM      8  C   UNL d   1       6.830  35.277 -19.448  0.00  0.00     0.075 A 
ATOM      9  C   UNL d   1       5.080  35.679 -22.657  0.00  0.00     0.090 A 
ATOM     10  C   UNL d   1       6.768  35.351 -22.126  0.00  0.00     0.190 A 
ATOM     11  C   UNL d   1       6.079  35.498 -22.892  0.00  0.00     0.094 A 
ENDROOT
BRANCH   3  12
ATOM     12  C   UNL d   1       4.245  35.765 -19.726  0.00  0.00     0.014 A 
ATOM     13  C   UNL d   1       3.915  36.705 -19.631  0.00  0.00     0.029 A 
ATOM     14  C   UNL d   1       2.957  36.878 -19.405  0.00  0.00    -0.001 A 
ATOM     15  C   UNL d   1       2.328  36.112 -19.273  0.00  0.00     0.017 A 
ATOM     16  C   UNL d   1       2.657  35.172 -19.368  0.00  0.00     0.038 A 
ATOM     17  C   UNL d   1       3.616  34.999 -19.594  0.00  0.00     0.076 A 
BRANCH  14  18
ATOM     18  C   UNL d   1       2.627  37.817 -19.311  0.00  0.00     0.090 A 
ATOM     19  O   UNL d   1       2.095  38.082 -18.507  0.00  0.00    -0.309 OA
ATOM     20  C   UNL d   1       1.766  39.022 -18.412  0.00  0.00     0.095 A 
ATOM     21  C   UNL d   1       1.968  39.696 -19.122  0.00  0.00     0.081 A 
ATOM     22  C   UNL d   1       1.212  39.283 -17.569  0.00  0.00     0.075 A 
ATOM     23  C   UNL d   1       2.500  39.431 -19.926  0.00  0.00     0.190 A 
ATOM     24  C   UNL d   1       1.632  40.678 -19.038  0.00  0.00     0.085 A 
ATOM     25  O   UNL d   1       2.703  40.106 -20.636  0.00  0.00    -0.287 OA
ATOM     26  C   UNL d   1       2.830  38.492 -20.020  0.00  0.00     0.094 A 
ATOM     27  C   UNL d   1       1.077  40.962 -18.202  0.00  0.00     0.074 A 
ATOM     28  C   UNL d   1       0.866  40.259 -17.463  0.00  0.00     0.071 A 
BRANCH  24  29
ATOM     29  O   UNL d   1       1.840  41.345 -19.753  0.00  0.00    -0.360 OA
ATOM     30  H   UNL d   1       2.200  41.834 -19.626  0.00  0.00     0.217 HD
ENDBRANCH  24  29
BRANCH  28  31
ATOM     31  O   UNL d   1       0.334  40.520 -16.657  0.00  0.00    -0.361 OA
ATOM     32  H   UNL d   1       0.003  41.045 -16.661  0.00  0.00     0.217 HD
ENDBRANCH  28  31
ENDBRANCH  14  18
BRANCH  17  33
ATOM     33  O   UNL d   1       3.945  34.060 -19.688  0.00  0.00    -0.360 OA
ATOM     34  H   UNL d   1       4.235  33.784 -19.215  0.00  0.00     0.217 HD
ENDBRANCH  17  33
ENDBRANCH   3  12
BRANCH   6  35
ATOM     35  O   UNL d   1       5.581  35.481 -18.266  0.00  0.00    -0.360 OA
ATOM     36  H   UNL d   1       5.294  34.994 -18.013  0.00  0.00     0.217 HD
ENDBRANCH   6  35
BRANCH   9  37
ATOM     37  C   UNL d   1       4.408  35.821 -23.384  0.00  0.00    -0.002 A 
ATOM     38  C   UNL d   1       3.841  36.645 -23.386  0.00  0.00     0.017 A 
ATOM     39  C   UNL d   1       3.170  36.788 -24.112  0.00  0.00     0.037 A 
ATOM     40  C   UNL d   1       3.065  36.108 -24.837  0.00  0.00     0.065 A 
ATOM     41  C   UNL d   1       3.632  35.284 -24.835  0.00  0.00     0.037 A 
ATOM     42  C   UNL d   1       4.304  35.141 -24.108  0.00  0.00     0.017 A 
BRANCH  40  43
ATOM     43  O   UNL d   1       2.393  36.250 -25.564  0.00  0.00    -0.361 OA
ATOM     44  H   UNL d   1       1.939  36.666 -25.490  0.00  0.00     0.217 HD
ENDBRANCH  40  43
ENDBRANCH   9  37
BRANCH   7  45
ATOM     45  O   UNL d   1       8.079  35.072 -20.631  0.00  0.00    -0.360 OA
ATOM     46  H   UNL d   1       8.237  34.916 -21.210  0.00  0.00     0.217 HD
ENDBRANCH   7  45
TORSDOF 9
ENDMDL
MODEL 3
REMARK VINA RESULT:   -10.318      4.176      8.758
REMARK INTER + INTRA:          -5.381
REMARK INTER:                 -13.964
REMARK INTRA:                   8.583
REMARK UNBOUND:                 8.556
REMARK  9 active torsions:
REMARK  status: ('A' for Active; 'I' for Inactive)
REMARK    1  A    between atoms: O_3  and  C_17 
REMARK    2  A    between atoms: O_4  and  C_18 
REMARK    3  A    between atoms: O_5  and  C_19 
REMARK    4  A    between atoms: O_7  and  C_32 
REMARK    5  A    between atoms: O_9  and  C_36 
REMARK    6  A    between atoms: O_10  and  C_40 
REMARK    7  A    between atoms: C_11  and  C_13 
REMARK    8  A    between atoms: C_15  and  C_20 
REMARK    9  A    between atoms: C_22  and  C_29 
ROOT
ATOM      1  O   UNL d   1       1.785  38.657 -19.518  0.00  0.00    -0.308 OA
ATOM      2  O   UNL d   1       3.385  36.038 -19.557  0.00  0.00    -0.287 OA
ATOM      3  C   UNL d   1       1.381  38.336 -17.835  0.00  0.00     0.045 A 
ATOM      4  C   UNL d   1       1.850  38.053 -18.672  0.00  0.00     0.107 A 
ATOM      5  C   UNL d   1       2.372  37.200 -18.688  0.00  0.00     0.082 A 
ATOM      6  C   UNL d   1       1.434  37.767 -17.015  0.00  0.00     0.082 A 
ATOM      7  C   UNL d   1       2.425  36.631 -17.868  0.00  0.00     0.085 A 
ATOM      8  C   UNL d   1       1.956  36.914 -17.031  0.00  0.00     0.075 A 
ATOM      9  C   UNL d   1       2.271  38.369 -20.393  0.00  0.00     0.090 A 
ATOM     10  C   UNL d   1       2.866  36.893 -19.552  0.00  0.00     0.190 A 
ATOM     11  C   UNL d   1       2.815  37.480 -20.410  0.00  0.00     0.094 A 
ENDROOT
BRANCH   3  12
ATOM     12  C   UNL d   1       0.859  39.189 -17.819  0.00  0.00     0.014 A 
ATOM     13  C   UNL d   1       1.317  40.051 -17.602  0.00  0.00     0.029 A 
ATOM     14  C   UNL d   1       0.795  40.904 -17.586  0.00  0.00    -0.001 A 
ATOM     15  C   UNL d   1      -0.185  40.894 -17.786  0.00  0.00     0.017 A 
ATOM     16  C   UNL d   1      -0.643  40.032 -18.002  0.00  0.00     0.038 A 
ATOM     17  C   UNL d   1      -0.121  39.179 -18.019  0.00  0.00     0.076 A 
BRANCH  14  18
ATOM     18  C   UNL d   1       1.252  41.767 -17.370  0.00  0.00     0.090 A 
ATOM     19  O   UNL d   1       1.575  41.942 -16.440  0.00  0.00    -0.309 OA
ATOM     20  C   UNL d   1       2.033  42.804 -16.224  0.00  0.00     0.095 A 
ATOM     21  C   UNL d   1       2.168  43.491 -16.937  0.00  0.00     0.081 A 
ATOM     22  C   UNL d   1       2.364  42.972 -15.250  0.00  0.00     0.075 A 
ATOM     23  C   UNL d   1       1.845  43.316 -17.868  0.00  0.00     0.190 A 
ATOM     24  C   UNL d   1       2.643  44.394 -16.727  0.00  0.00     0.085 A 
ATOM     25  O   UNL d   1       1.979  44.003 -18.581  0.00  0.00    -0.287 OA
ATOM     26  C   UNL d   1       1.387  42.454 -18.084  0.00  0.00     0.094 A 
ATOM     27  C   UNL d   1       2.982  44.584 -15.761  0.00  0.00     0.074 A 
ATOM     28  C   UNL d   1       2.842  43.868 -15.017  0.00  0.00     0.071 A 
BRANCH  24  29
ATOM     29  O   UNL d   1       2.772  45.074 -17.449  0.00  0.00    -0.360 OA
ATOM     30  H   UNL d   1       3.345  45.250 -17.610  0.00  0.00     0.217 HD
ENDBRANCH  24  29
BRANCH  28  31
ATOM     31  O   UNL d   1       3.164  44.040 -14.086  0.00  0.00    -0.361 OA
ATOM     32  H   UNL d   1       3.676  43.759 -13.878  0.00  0.00     0.217 HD
ENDBRANCH  28  31
ENDBRANCH  14  18
BRANCH  17  33
ATOM     33  O   UNL d   1      -0.578  38.317 -18.235  0.00  0.00    -0.360 OA
ATOM     34  H   UNL d   1      -0.418  37.798 -17.936  0.00  0.00     0.217 HD
ENDBRANCH  17  33
ENDBRANCH   3  12
BRANCH   6  35
ATOM     35  O   UNL d   1       0.965  38.050 -16.178  0.00  0.00    -0.360 OA
ATOM     36  H   UNL d   1       1.294  38.229 -15.684  0.00  0.00     0.217 HD
ENDBRANCH   6  35
BRANCH   9  37
ATOM     37  C   UNL d   1       2.216  38.941 -21.211  0.00  0.00    -0.002 A 
ATOM     38  C   UNL d   1       1.329  39.115 -21.640  0.00  0.00     0.017 A 
ATOM     39  C   UNL d   1       1.273  39.687 -22.458  0.00  0.00     0.037 A 
ATOM     40  C   UNL d   1       2.103  40.086 -22.847  0.00  0.00     0.065 A 
ATOM     41  C   UNL d   1       2.990  39.913 -22.418  0.00  0.00     0.037 A 
ATOM     42  C   UNL d   1       3.045  39.340 -21.600  0.00  0.00     0.017 A 
BRANCH  40  43
ATOM     43  O   UNL d   1       2.047  40.659 -23.665  0.00  0.00    -0.361 OA
ATOM     44  H   UNL d   1       2.495  41.072 -23.786  0.00  0.00     0.217 HD
ENDBRANCH  40  43
ENDBRANCH   9  37
BRANCH   7  45
ATOM     45  O   UNL d   1       2.947  35.778 -17.884  0.00  0.00    -0.360 OA
ATOM     46  H   UNL d   1       2.655  35.237 -17.968  0.00  0.00     0.217 HD
ENDBRANCH   7  45
TORSDOF 9
ENDMDL
MODEL 4
REMARK VINA RESULT:   -10.104      2.336      6.995
REMARK INTER + INTRA:          -5.091
REMARK INTER:                 -13.707
REMARK INTRA:                   8.616
REMARK UNBOUND:                 8.556
REMARK  9 active torsions:
REMARK  status: ('A' for Active; 'I' for Inactive)
REMARK    1  A    between atoms: O_3  and  C_17 
REMARK    2  A    between atoms: O_4  and  C_18 
REMARK    3  A    between atoms: O_5  and  C_19 
REMARK    4  A    between atoms: O_7  and  C_32 
REMARK    5  A    between atoms: O_9  and  C_36 
REMARK    6  A    between atoms: O_10  and  C_40 
REMARK    7  A    between atoms: C_11  and  C_13 
REMARK    8  A    between atoms: C_15  and  C_20 
REMARK    9  A    between atoms: C_22  and  C_29 
ROOT
ATOM      1  O   UNL d   1       3.870  37.216 -22.444  0.00  0.00    -0.308 OA
ATOM      2  O   UNL d   1       3.499  35.190 -24.719  0.00  0.00    -0.287 OA
ATOM      3  C   UNL d   1       2.527  38.142 -23.105  0.00  0.00     0.045 A 
ATOM      4  C   UNL d   1       3.127  37.344 -23.163  0.00  0.00     0.107 A 
ATOM      5  C   UNL d   1       3.009  36.682 -23.903  0.00  0.00     0.082 A 
ATOM      6  C   UNL d   1       1.809  38.277 -23.788  0.00  0.00     0.082 A 
ATOM      7  C   UNL d   1       2.291  36.817 -24.585  0.00  0.00     0.085 A 
ATOM      8  C   UNL d   1       1.691  37.615 -24.528  0.00  0.00     0.075 A 
ATOM      9  C   UNL d   1       4.499  36.388 -22.497  0.00  0.00     0.090 A 
ATOM     10  C   UNL d   1       3.626  35.846 -23.975  0.00  0.00     0.190 A 
ATOM     11  C   UNL d   1       4.376  35.697 -23.268  0.00  0.00     0.094 A 
ENDROOT
BRANCH   3  12
ATOM     12  C   UNL d   1       2.644  38.804 -22.365  0.00  0.00     0.014 A 
ATOM     13  C   UNL d   1       2.223  38.638 -21.474  0.00  0.00     0.029 A 
ATOM     14  C   UNL d   1       2.341  39.300 -20.734  0.00  0.00    -0.001 A 
ATOM     15  C   UNL d   1       2.880  40.128 -20.885  0.00  0.00     0.017 A 
ATOM     16  C   UNL d   1       3.301  40.294 -21.777  0.00  0.00     0.038 A 
ATOM     17  C   UNL d   1       3.184  39.632 -22.517  0.00  0.00     0.076 A 
BRANCH  14  18
ATOM     18  C   UNL d   1       1.919  39.134 -19.842  0.00  0.00     0.090 A 
ATOM     19  O   UNL d   1       2.244  38.382 -19.268  0.00  0.00    -0.309 OA
ATOM     20  C   UNL d   1       1.822  38.216 -18.377  0.00  0.00     0.095 A 
ATOM     21  C   UNL d   1       1.076  38.801 -18.060  0.00  0.00     0.081 A 
ATOM     22  C   UNL d   1       2.171  37.429 -17.790  0.00  0.00     0.075 A 
ATOM     23  C   UNL d   1       0.752  39.553 -18.634  0.00  0.00     0.190 A 
ATOM     24  C   UNL d   1       0.628  38.641 -17.133  0.00  0.00     0.085 A 
ATOM     25  O   UNL d   1       0.006  40.139 -18.316  0.00  0.00    -0.287 OA
ATOM     26  C   UNL d   1       1.173  39.719 -19.525  0.00  0.00     0.094 A 
ATOM     27  C   UNL d   1       0.960  37.859 -16.529  0.00  0.00     0.074 A 
ATOM     28  C   UNL d   1       1.737  37.249 -16.860  0.00  0.00     0.071 A 
BRANCH  24  29
ATOM     29  O   UNL d   1      -0.118  39.232 -16.826  0.00  0.00    -0.360 OA
ATOM     30  H   UNL d   1      -0.639  39.273 -17.159  0.00  0.00     0.217 HD
ENDBRANCH  24  29
BRANCH  28  31
ATOM     31  O   UNL d   1       2.064  36.497 -16.288  0.00  0.00    -0.361 OA
ATOM     32  H   UNL d   1       1.836  36.420 -15.717  0.00  0.00     0.217 HD
ENDBRANCH  28  31
ENDBRANCH  14  18
BRANCH  17  33
ATOM     33  O   UNL d   1       3.605  39.798 -23.408  0.00  0.00    -0.360 OA
ATOM     34  H   UNL d   1       3.255  39.807 -23.920  0.00  0.00     0.217 HD
ENDBRANCH  17  33
ENDBRANCH   3  12
BRANCH   6  35
ATOM     35  O   UNL d   1       1.209  39.075 -23.731  0.00  0.00    -0.360 OA
ATOM     36  H   UNL d   1       1.434  39.642 -23.843  0.00  0.00     0.217 HD
ENDBRANCH   6  35
BRANCH   9  37
ATOM     37  C   UNL d   1       5.216  36.256 -21.812  0.00  0.00    -0.002 A 
ATOM     38  C   UNL d   1       4.981  36.242 -20.840  0.00  0.00     0.017 A 
ATOM     39  C   UNL d   1       5.697  36.110 -20.154  0.00  0.00     0.037 A 
ATOM     40  C   UNL d   1       6.647  35.992 -20.441  0.00  0.00     0.065 A 
ATOM     41  C   UNL d   1       6.882  36.006 -21.413  0.00  0.00     0.037 A 
ATOM     42  C   UNL d   1       6.165  36.138 -22.098  0.00  0.00     0.017 A 
BRANCH  40  43
ATOM     43  O   UNL d   1       7.364  35.860 -19.756  0.00  0.00    -0.361 OA
ATOM     44  H   UNL d   1       7.295  35.431 -19.313  0.00  0.00     0.217 HD
ENDBRANCH  40  43
ENDBRANCH   9  37
BRANCH   7  45
ATOM     45  O   UNL d   1       2.173  36.155 -25.325  0.00  0.00    -0.360 OA
ATOM     46  H   UNL d   1       1.609  36.047 -25.558  0.00  0.00     0.217 HD
ENDBRANCH   7  45
TORSDOF 9
ENDMDL
MODEL 5
REMARK VINA RESULT:   -10.014      2.626      6.409
REMARK INTER + INTRA:          -4.971
REMARK INTER:                 -14.018
REMARK INTRA:                   9.047
REMARK UNBOUND:                 8.556
REMARK  9 active torsions:
REMARK  status: ('A' for Active; 'I' for Inactive)
REMARK    1  A    between atoms: O_3  and  C_17 
REMARK    2  A    between atoms: O_4  and  C_18 
REMARK    3  A    between atoms: O_5  and  C_19 
REMARK    4  A    between atoms: O_7  and  C_32 
REMARK    5  A    between atoms: O_9  and  C_36 
REMARK    6  A    between atoms: O_10  and  C_40 
REMARK    7  A    between atoms: C_11  and  C_13 
REMARK    8  A    between atoms: C_15  and  C_20 
REMARK    9  A    between atoms: C_22  and  C_29 
ROOT
ATOM      1  O   UNL d   1       3.903  36.321 -19.993  0.00  0.00    -0.308 OA
ATOM      2  O   UNL d   1       6.035  34.869 -18.330  0.00  0.00    -0.287 OA
ATOM      3  C   UNL d   1       4.991  36.250 -21.374  0.00  0.00     0.045 A 
ATOM      4  C   UNL d   1       4.814  36.040 -20.413  0.00  0.00     0.107 A 
ATOM      5  C   UNL d   1       5.506  35.567 -19.868  0.00  0.00     0.082 A 
ATOM      6  C   UNL d   1       5.862  35.987 -21.791  0.00  0.00     0.082 A 
ATOM      7  C   UNL d   1       6.376  35.304 -20.285  0.00  0.00     0.085 A 
ATOM      8  C   UNL d   1       6.554  35.514 -21.246  0.00  0.00     0.075 A 
ATOM      9  C   UNL d   1       3.710  36.105 -18.992  0.00  0.00     0.090 A 
ATOM     10  C   UNL d   1       5.335  35.342 -18.866  0.00  0.00     0.190 A 
ATOM     11  C   UNL d   1       4.432  35.613 -18.424  0.00  0.00     0.094 A 
ENDROOT
BRANCH   3  12
ATOM     12  C   UNL d   1       4.299  36.723 -21.919  0.00  0.00     0.014 A 
ATOM     13  C   UNL d   1       4.205  37.716 -21.855  0.00  0.00     0.029 A 
ATOM     14  C   UNL d   1       3.513  38.189 -22.400  0.00  0.00    -0.001 A 
ATOM     15  C   UNL d   1       2.914  37.668 -23.009  0.00  0.00     0.017 A 
ATOM     16  C   UNL d   1       3.008  36.675 -23.073  0.00  0.00     0.038 A 
ATOM     17  C   UNL d   1       3.700  36.202 -22.528  0.00  0.00     0.076 A 
BRANCH  14  18
ATOM     18  C   UNL d   1       3.419  39.182 -22.336  0.00  0.00     0.090 A 
ATOM     19  O   UNL d   1       3.520  39.748 -23.155  0.00  0.00    -0.309 OA
ATOM     20  C   UNL d   1       3.426  40.741 -23.091  0.00  0.00     0.095 A 
ATOM     21  C   UNL d   1       3.231  41.170 -22.209  0.00  0.00     0.081 A 
ATOM     22  C   UNL d   1       3.534  41.317 -23.953  0.00  0.00     0.075 A 
ATOM     23  C   UNL d   1       3.130  40.604 -21.390  0.00  0.00     0.190 A 
ATOM     24  C   UNL d   1       3.131  42.203 -22.127  0.00  0.00     0.085 A 
ATOM     25  O   UNL d   1       2.935  41.032 -20.508  0.00  0.00    -0.287 OA
ATOM     26  C   UNL d   1       3.224  39.611 -21.454  0.00  0.00     0.094 A 
ATOM     27  C   UNL d   1       3.235  42.799 -22.975  0.00  0.00     0.074 A 
ATOM     28  C   UNL d   1       3.438  42.353 -23.895  0.00  0.00     0.071 A 
BRANCH  24  29
ATOM     29  O   UNL d   1       2.936  42.621 -21.239  0.00  0.00    -0.360 OA
ATOM     30  H   UNL d   1       2.604  42.310 -20.817  0.00  0.00     0.217 HD
ENDBRANCH  24  29
BRANCH  28  31
ATOM     31  O   UNL d   1       3.540  42.915 -24.715  0.00  0.00    -0.361 OA
ATOM     32  H   UNL d   1       3.489  42.656 -25.277  0.00  0.00     0.217 HD
ENDBRANCH  28  31
ENDBRANCH  14  18
BRANCH  17  33
ATOM     33  O   UNL d   1       3.794  35.208 -22.592  0.00  0.00    -0.360 OA
ATOM     34  H   UNL d   1       3.547  34.904 -23.072  0.00  0.00     0.217 HD
ENDBRANCH  17  33
ENDBRANCH   3  12
BRANCH   6  35
ATOM     35  O   UNL d   1       6.039  36.196 -22.752  0.00  0.00    -0.360 OA
ATOM     36  H   UNL d   1       5.588  36.431 -23.107  0.00  0.00     0.217 HD
ENDBRANCH   6  35
BRANCH   9  37
ATOM     37  C   UNL d   1       2.839  36.370 -18.579  0.00  0.00    -0.002 A 
ATOM     38  C   UNL d   1       2.045  36.549 -19.161  0.00  0.00     0.017 A 
ATOM     39  C   UNL d   1       1.173  36.814 -18.749  0.00  0.00     0.037 A 
ATOM     40  C   UNL d   1       1.095  36.900 -17.756  0.00  0.00     0.065 A 
ATOM     41  C   UNL d   1       1.890  36.722 -17.174  0.00  0.00     0.037 A 
ATOM     42  C   UNL d   1       2.761  36.457 -17.587  0.00  0.00     0.017 A 
BRANCH  40  43
ATOM     43  O   UNL d   1       0.224  37.165 -17.343  0.00  0.00    -0.361 OA
ATOM     44  H   UNL d   1       0.145  37.742 -17.126  0.00  0.00     0.217 HD
ENDBRANCH  40  43
ENDBRANCH   9  37
BRANCH   7  45
ATOM     45  O   UNL d   1       7.069  34.831 -19.740  0.00  0.00    -0.360 OA
ATOM     46  H   UNL d   1       7.325  34.307 -19.951  0.00  0.00     0.217 HD
ENDBRANCH   7  45
TORSDOF 9
ENDMDL
