MODEL 1
REMARK VINA RESULT:   -10.922      0.000      0.000
REMARK INTER + INTRA:          -3.752
REMARK INTER:                 -14.360
REMARK INTRA:                  10.609
REMARK UNBOUND:                10.363
REMARK  5 active torsions:
REMARK  status: ('A' for Active; 'I' for Inactive)
REMARK    1  A    between atoms: C_6  and  C_13 
REMARK    2  A    between atoms: C_13  and  C_19 
REMARK    3  A    between atoms: C_19  and  C_24 
REMARK    4  A    between atoms: C_24  and  C_25 
REMARK    5  A    between atoms: C_25  and  C_26 
ROOT
ATOM      1  O   UNL d   1      26.641 -18.192  -9.931  0.00  0.00    -0.293 OA
ATOM      2  C   UNL d   1      27.720 -22.235 -14.503  0.00  0.00    -0.036 A 
ATOM      3  C   UNL d   1      27.731 -22.550 -13.554  0.00  0.00    -0.002 A 
ATOM      4  C   UNL d   1      27.558 -21.904 -12.811  0.00  0.00    -0.004 A 
ATOM      5  C   UNL d   1      27.374 -20.943 -13.016  0.00  0.00     0.002 A 
ATOM      6  C   UNL d   1      27.912 -23.017 -15.085  0.00  0.00    -0.002 A 
ATOM      7  C   UNL d   1      27.536 -21.274 -14.709  0.00  0.00     0.010 A 
ATOM      8  C   UNL d   1      27.930 -23.524 -13.558  0.00  0.00     0.006 A 
ATOM      9  C   UNL d   1      27.192 -20.258 -12.253  0.00  0.00    -0.016 A 
ATOM     10  C   UNL d   1      27.363 -20.628 -13.965  0.00  0.00     0.007 A 
ATOM     11  C   UNL d   1      28.042 -23.812 -14.504  0.00  0.00     0.006 A 
ATOM     12  C   UNL d   1      27.573 -22.247 -11.827  0.00  0.00     0.010 A 
ATOM     13  C   UNL d   1      27.709 -21.920 -15.452  0.00  0.00     0.016 C 
ATOM     14  C   UNL d   1      27.202 -20.579 -11.261  0.00  0.00    -0.068 A 
ATOM     15  C   UNL d   1      27.394 -21.580 -11.047  0.00  0.00     0.035 A 
ATOM     16  C   UNL d   1      26.994 -19.220 -12.500  0.00  0.00     0.022 A 
ATOM     17  C   UNL d   1      27.183 -19.950 -13.204  0.00  0.00     0.020 C 
ATOM     18  C   UNL d   1      26.805 -18.507 -11.705  0.00  0.00     0.084 A 
ATOM     19  C   UNL d   1      27.015 -19.885 -10.449  0.00  0.00     0.053 A 
ATOM     20  C   UNL d   1      26.815 -18.841 -10.673  0.00  0.00     0.149 A 
ENDROOT
BRANCH   6  21
ATOM     21  C   UNL d   1      27.966 -23.006 -16.084  0.00  0.00    -0.014 C 
ATOM     22  C   UNL d   1      28.707 -22.513 -16.539  0.00  0.00     0.010 C 
BRANCH  21  23
ATOM     23  C   UNL d   1      27.278 -23.488 -16.627  0.00  0.00     0.005 C 
BRANCH  23  24
ATOM     24  C   UNL d   1      27.562 -24.068 -17.391  0.00  0.00     0.005 C 
BRANCH  24  25
ATOM     25  C   UNL d   1      26.978 -24.824 -17.688  0.00  0.00    -0.015 C 
ATOM     26  C   UNL d   1      25.986 -24.704 -17.725  0.00  0.00     0.010 C 
BRANCH  25  27
ATOM     27  C   UNL d   1      27.387 -25.699 -17.947  0.00  0.00    -0.019 C 
ATOM     28  C   UNL d   1      27.218 -26.513 -17.391  0.00  0.00     0.010 C 
ATOM     29  C   UNL d   1      27.965 -25.760 -18.762  0.00  0.00     0.010 C 
ENDBRANCH  25  27
ENDBRANCH  24  25
ENDBRANCH  23  24
ENDBRANCH  21  23
ENDBRANCH   6  21
TORSDOF 5
ENDMDL
MODEL 2
REMARK VINA RESULT:   -10.838      6.158      8.167
REMARK INTER + INTRA:          -3.643
REMARK INTER:                 -13.970
REMARK INTRA:                  10.327
REMARK UNBOUND:                10.363
REMARK  5 active torsions:
REMARK  status: ('A' for Active; 'I' for Inactive)
REMARK    1  A    between atoms: C_6  and  C_13 
REMARK    2  A    between atoms: C_13  and  C_19 
REMARK    3  A    between atoms: C_19  and  C_24 
REMARK    4  A    between atoms: C_24  and  C_25 
REMARK    5  A    between atoms: C_25  and  C_26 
ROOT
ATOM      1  O   UNL d   1      34.094 -12.583 -16.765  0.00  0.00    -0.293 OA
ATOM      2  C   UNL d   1      28.931 -15.856 -15.747  0.00  0.00    -0.036 A 
ATOM      3  C   UNL d   1      29.525 -16.099 -16.513  0.00  0.00    -0.002 A 
ATOM      4  C   UNL d   1      30.360 -15.576 -16.684  0.00  0.00    -0.004 A 
ATOM      5  C   UNL d   1      30.600 -14.810 -16.089  0.00  0.00     0.002 A 
ATOM      6  C   UNL d   1      28.162 -16.486 -15.746  0.00  0.00    -0.002 A 
ATOM      7  C   UNL d   1      29.171 -15.090 -15.151  0.00  0.00     0.010 A 
ATOM      8  C   UNL d   1      29.118 -16.877 -16.979  0.00  0.00     0.006 A 
ATOM      9  C   UNL d   1      31.467 -14.255 -16.254  0.00  0.00    -0.016 A 
ATOM     10  C   UNL d   1      30.006 -14.566 -15.322  0.00  0.00     0.007 A 
ATOM     11  C   UNL d   1      28.277 -17.116 -16.505  0.00  0.00     0.006 A 
ATOM     12  C   UNL d   1      30.969 -15.841 -17.487  0.00  0.00     0.010 A 
ATOM     13  C   UNL d   1      28.336 -15.613 -14.980  0.00  0.00     0.016 C 
ATOM     14  C   UNL d   1      32.091 -14.503 -17.051  0.00  0.00    -0.068 A 
ATOM     15  C   UNL d   1      31.840 -15.301 -17.672  0.00  0.00     0.035 A 
ATOM     16  C   UNL d   1      31.707 -13.428 -15.594  0.00  0.00     0.022 A 
ATOM     17  C   UNL d   1      30.868 -14.018 -15.489  0.00  0.00     0.020 C 
ATOM     18  C   UNL d   1      32.610 -12.851 -15.767  0.00  0.00     0.084 A 
ATOM     19  C   UNL d   1      32.998 -13.940 -17.243  0.00  0.00     0.053 A 
ATOM     20  C   UNL d   1      33.259 -13.109 -16.597  0.00  0.00     0.149 A 
ENDROOT
BRANCH   6  21
ATOM     21  C   UNL d   1      27.404 -16.486 -15.093  0.00  0.00    -0.014 C 
ATOM     22  C   UNL d   1      26.584 -15.945 -15.279  0.00  0.00     0.010 C 
BRANCH  21  23
ATOM     23  C   UNL d   1      27.467 -17.028 -14.254  0.00  0.00     0.005 C 
BRANCH  23  24
ATOM     24  C   UNL d   1      26.700 -17.609 -13.977  0.00  0.00     0.005 C 
BRANCH  24  25
ATOM     25  C   UNL d   1      26.836 -18.316 -13.282  0.00  0.00    -0.015 C 
ATOM     26  C   UNL d   1      27.387 -18.120 -12.471  0.00  0.00     0.010 C 
BRANCH  25  27
ATOM     27  C   UNL d   1      26.420 -19.217 -13.399  0.00  0.00    -0.019 C 
ATOM     28  C   UNL d   1      25.448 -19.293 -13.626  0.00  0.00     0.010 C 
ATOM     29  C   UNL d   1      26.974 -20.043 -13.290  0.00  0.00     0.010 C 
ENDBRANCH  25  27
ENDBRANCH  24  25
ENDBRANCH  23  24
ENDBRANCH  21  23
ENDBRANCH   6  21
TORSDOF 5
ENDMDL
MODEL 3
REMARK VINA RESULT:   -10.737      0.977      2.005
REMARK INTER + INTRA:          -3.513
REMARK INTER:                 -14.186
REMARK INTRA:                  10.674
REMARK UNBOUND:                10.363
REMARK  5 active torsions:
REMARK  status: ('A' for Active; 'I' for Inactive)
REMARK    1  A    between atoms: C_6  and  C_13 
REMARK    2  A    between atoms: C_13  and  C_19 
REMARK    3  A    between atoms: C_19  and  C_24 
REMARK    4  A    between atoms: C_24  and  C_25 
REMARK    5  A    between atoms: C_25  and  C_26 
ROOT
ATOM      1  O   UNL d   1      28.004 -18.370  -9.513  0.00  0.00    -0.293 OA
ATOM      2  C   UNL d   1      26.842 -21.972 -14.421  0.00  0.00    -0.036 A 
ATOM      3  C   UNL d   1      26.543 -21.018 -14.428  0.00  0.00    -0.002 A 
ATOM      4  C   UNL d   1      26.727 -20.430 -13.640  0.00  0.00    -0.004 A 
ATOM      5  C   UNL d   1      27.209 -20.796 -12.845  0.00  0.00     0.002 A 
ATOM      6  C   UNL d   1      26.569 -22.383 -15.283  0.00  0.00    -0.002 A 
ATOM      7  C   UNL d   1      27.325 -22.338 -13.625  0.00  0.00     0.010 A 
ATOM      8  C   UNL d   1      26.088 -20.847 -15.295  0.00  0.00     0.006 A 
ATOM      9  C   UNL d   1      27.408 -20.196 -12.017  0.00  0.00    -0.016 A 
ATOM     10  C   UNL d   1      27.508 -21.751 -12.837  0.00  0.00     0.007 A 
ATOM     11  C   UNL d   1      26.104 -21.690 -15.823  0.00  0.00     0.006 A 
ATOM     12  C   UNL d   1      26.409 -19.438 -13.663  0.00  0.00     0.010 A 
ATOM     13  C   UNL d   1      27.141 -22.926 -14.413  0.00  0.00     0.016 C 
ATOM     14  C   UNL d   1      27.099 -19.201 -12.017  0.00  0.00    -0.068 A 
ATOM     15  C   UNL d   1      26.596 -18.819 -12.846  0.00  0.00     0.035 A 
ATOM     16  C   UNL d   1      27.933 -20.616 -11.165  0.00  0.00     0.022 A 
ATOM     17  C   UNL d   1      27.704 -21.152 -12.016  0.00  0.00     0.020 C 
ATOM     18  C   UNL d   1      28.140 -19.991 -10.302  0.00  0.00     0.084 A 
ATOM     19  C   UNL d   1      27.294 -18.557 -11.166  0.00  0.00     0.053 A 
ATOM     20  C   UNL d   1      27.818 -18.955 -10.303  0.00  0.00     0.149 A 
ENDROOT
BRANCH   6  21
ATOM     21  C   UNL d   1      26.734 -23.330 -15.560  0.00  0.00    -0.014 C 
ATOM     22  C   UNL d   1      26.201 -24.070 -15.150  0.00  0.00     0.010 C 
BRANCH  21  23
ATOM     23  C   UNL d   1      27.431 -23.536 -16.248  0.00  0.00     0.005 C 
BRANCH  23  24
ATOM     24  C   UNL d   1      27.311 -24.315 -16.863  0.00  0.00     0.005 C 
BRANCH  24  25
ATOM     25  C   UNL d   1      27.832 -24.363 -17.716  0.00  0.00    -0.015 C 
ATOM     26  C   UNL d   1      28.344 -23.565 -18.034  0.00  0.00     0.010 C 
BRANCH  25  27
ATOM     27  C   UNL d   1      27.842 -25.209 -18.248  0.00  0.00    -0.019 C 
ATOM     28  C   UNL d   1      28.029 -25.179 -19.230  0.00  0.00     0.010 C 
ATOM     29  C   UNL d   1      27.663 -26.085 -17.799  0.00  0.00     0.010 C 
ENDBRANCH  25  27
ENDBRANCH  24  25
ENDBRANCH  23  24
ENDBRANCH  21  23
ENDBRANCH   6  21
TORSDOF 5
ENDMDL
MODEL 4
REMARK VINA RESULT:   -10.645      4.558      7.403
REMARK INTER + INTRA:          -3.394
REMARK INTER:                 -13.943
REMARK INTRA:                  10.550
REMARK UNBOUND:                10.363
REMARK  5 active torsions:
REMARK  status: ('A' for Active; 'I' for Inactive)
REMARK    1  A    between atoms: C_6  and  C_13 
REMARK    2  A    between atoms: C_13  and  C_19 
REMARK    3  A    between atoms: C_19  and  C_24 
REMARK    4  A    between atoms: C_24  and  C_25 
REMARK    5  A    between atoms: C_25  and  C_26 
ROOT
ATOM      1  O   UNL d   1      22.880 -15.640 -18.900  0.00  0.00    -0.293 OA
ATOM      2  C   UNL d   1      26.387 -17.789 -14.263  0.00  0.00    -0.036 A 
ATOM      3  C   UNL d   1      26.691 -16.990 -14.782  0.00  0.00    -0.002 A 
ATOM      4  C   UNL d   1      26.131 -16.637 -15.531  0.00  0.00    -0.004 A 
ATOM      5  C   UNL d   1      25.266 -17.084 -15.762  0.00  0.00     0.002 A 
ATOM      6  C   UNL d   1      27.072 -17.981 -13.570  0.00  0.00    -0.002 A 
ATOM      7  C   UNL d   1      25.522 -18.236 -14.495  0.00  0.00     0.010 A 
ATOM      8  C   UNL d   1      27.562 -16.695 -14.404  0.00  0.00     0.006 A 
ATOM      9  C   UNL d   1      24.672 -16.727 -16.541  0.00  0.00    -0.016 A 
ATOM     10  C   UNL d   1      24.962 -17.883 -15.244  0.00  0.00     0.007 A 
ATOM     11  C   UNL d   1      27.797 -17.307 -13.656  0.00  0.00     0.006 A 
ATOM     12  C   UNL d   1      26.461 -15.803 -16.062  0.00  0.00     0.010 A 
ATOM     13  C   UNL d   1      26.082 -18.589 -13.745  0.00  0.00     0.016 C 
ATOM     14  C   UNL d   1      24.983 -15.895 -17.085  0.00  0.00    -0.068 A 
ATOM     15  C   UNL d   1      25.883 -15.430 -16.844  0.00  0.00     0.035 A 
ATOM     16  C   UNL d   1      23.738 -17.228 -16.773  0.00  0.00     0.022 A 
ATOM     17  C   UNL d   1      24.375 -17.526 -16.018  0.00  0.00     0.020 C 
ATOM     18  C   UNL d   1      23.119 -16.858 -17.584  0.00  0.00     0.084 A 
ATOM     19  C   UNL d   1      24.381 -15.506 -17.899  0.00  0.00     0.053 A 
ATOM     20  C   UNL d   1      23.443 -15.991 -18.151  0.00  0.00     0.149 A 
ENDROOT
BRANCH   6  21
ATOM     21  C   UNL d   1      27.038 -18.725 -12.901  0.00  0.00    -0.014 C 
ATOM     22  C   UNL d   1      27.089 -19.675 -13.208  0.00  0.00     0.010 C 
BRANCH  21  23
ATOM     23  C   UNL d   1      26.955 -18.517 -11.926  0.00  0.00     0.005 C 
BRANCH  23  24
ATOM     24  C   UNL d   1      27.392 -19.110 -11.250  0.00  0.00     0.005 C 
BRANCH  24  25
ATOM     25  C   UNL d   1      27.381 -18.857 -10.282  0.00  0.00    -0.015 C 
ATOM     26  C   UNL d   1      26.758 -18.144  -9.960  0.00  0.00     0.010 C 
BRANCH  25  27
ATOM     27  C   UNL d   1      27.991 -19.317  -9.639  0.00  0.00    -0.019 C 
ATOM     28  C   UNL d   1      28.642 -18.783  -9.099  0.00  0.00     0.010 C 
ATOM     29  C   UNL d   1      27.951 -20.311  -9.534  0.00  0.00     0.010 C 
ENDBRANCH  25  27
ENDBRANCH  24  25
ENDBRANCH  23  24
ENDBRANCH  21  23
ENDBRANCH   6  21
TORSDOF 5
ENDMDL
MODEL 5
REMARK VINA RESULT:   -10.639      3.405      5.131
REMARK INTER + INTRA:          -3.386
REMARK INTER:                 -13.753
REMARK INTRA:                  10.367
REMARK UNBOUND:                10.363
REMARK  5 active torsions:
REMARK  status: ('A' for Active; 'I' for Inactive)
REMARK    1  A    between atoms: C_6  and  C_13 
REMARK    2  A    between atoms: C_13  and  C_19 
REMARK    3  A    between atoms: C_19  and  C_24 
REMARK    4  A    between atoms: C_24  and  C_25 
REMARK    5  A    between atoms: C_25  and  C_26 
ROOT
ATOM      1  O   UNL d   1      28.592 -19.523  -8.390  0.00  0.00    -0.293 OA
ATOM      2  C   UNL d   1      26.557 -18.781 -14.196  0.00  0.00    -0.036 A 
ATOM      3  C   UNL d   1      26.604 -19.700 -13.804  0.00  0.00    -0.002 A 
ATOM      4  C   UNL d   1      26.931 -19.828 -12.868  0.00  0.00    -0.004 A 
ATOM      5  C   UNL d   1      27.212 -19.038 -12.324  0.00  0.00     0.002 A 
ATOM      6  C   UNL d   1      26.211 -18.864 -15.124  0.00  0.00    -0.002 A 
ATOM      7  C   UNL d   1      26.838 -17.991 -13.652  0.00  0.00     0.010 A 
ATOM      8  C   UNL d   1      26.286 -20.342 -14.493  0.00  0.00     0.006 A 
ATOM      9  C   UNL d   1      27.555 -19.155 -11.347  0.00  0.00    -0.016 A 
ATOM     10  C   UNL d   1      27.165 -18.119 -12.716  0.00  0.00     0.007 A 
ATOM     11  C   UNL d   1      26.043 -19.826 -15.308  0.00  0.00     0.006 A 
ATOM     12  C   UNL d   1      26.974 -20.792 -12.473  0.00  0.00     0.010 A 
ATOM     13  C   UNL d   1      26.510 -17.863 -14.589  0.00  0.00     0.016 C 
ATOM     14  C   UNL d   1      27.606 -20.109 -10.932  0.00  0.00    -0.068 A 
ATOM     15  C   UNL d   1      27.314 -20.933 -11.499  0.00  0.00     0.035 A 
ATOM     16  C   UNL d   1      27.854 -18.282 -10.776  0.00  0.00     0.022 A 
ATOM     17  C   UNL d   1      27.505 -18.239 -11.746  0.00  0.00     0.020 C 
ATOM     18  C   UNL d   1      28.211 -18.405  -9.759  0.00  0.00     0.084 A 
ATOM     19  C   UNL d   1      27.960 -20.257  -9.917  0.00  0.00     0.053 A 
ATOM     20  C   UNL d   1      28.264 -19.398  -9.327  0.00  0.00     0.149 A 
ENDROOT
BRANCH   6  21
ATOM     21  C   UNL d   1      26.057 -18.109 -15.763  0.00  0.00    -0.014 C 
ATOM     22  C   UNL d   1      26.791 -17.817 -16.376  0.00  0.00     0.010 C 
BRANCH  21  23
ATOM     23  C   UNL d   1      25.170 -17.648 -15.788  0.00  0.00     0.005 C 
BRANCH  23  24
ATOM     24  C   UNL d   1      24.802 -17.322 -16.659  0.00  0.00     0.005 C 
BRANCH  24  25
ATOM     25  C   UNL d   1      23.872 -16.954 -16.701  0.00  0.00    -0.015 C 
ATOM     26  C   UNL d   1      23.386 -16.727 -15.857  0.00  0.00     0.010 C 
BRANCH  25  27
ATOM     27  C   UNL d   1      23.432 -16.812 -17.587  0.00  0.00    -0.019 C 
ATOM     28  C   UNL d   1      22.772 -17.481 -17.929  0.00  0.00     0.010 C 
ATOM     29  C   UNL d   1      23.650 -16.001 -18.131  0.00  0.00     0.010 C 
ENDBRANCH  25  27
ENDBRANCH  24  25
ENDBRANCH  23  24
ENDBRANCH  21  23
ENDBRANCH   6  21
TORSDOF 5
ENDMDL
