MODEL 1
REMARK VINA RESULT:    -9.405      0.000      0.000
REMARK INTER + INTRA:          -7.485
REMARK INTER:                 -10.464
REMARK INTRA:                   2.979
REMARK UNBOUND:                 3.020
REMARK  2 active torsions:
REMARK  status: ('A' for Active; 'I' for Inactive)
REMARK    1  A    between atoms: O_3  and  C_17 
REMARK    2  A    between atoms: O_4  and  C_21 
ROOT
ATOM      1  O   UNL d   1      25.811  42.545 -24.735  0.00  0.00    -0.323 OA
ATOM      2  O   UNL d   1      26.846  41.478 -23.960  0.00  0.00    -0.323 OA
ATOM      3  N   UNL d   1      29.099  42.961 -27.824  0.00  0.00    -0.400 N 
ATOM      4  C   UNL d   1      28.200  43.158 -27.433  0.00  0.00     0.117 A 
ATOM      5  C   UNL d   1      27.546  43.819 -27.903  0.00  0.00     0.069 A 
ATOM      6  C   UNL d   1      27.919  42.719 -26.580  0.00  0.00    -0.026 A 
ATOM      7  C   UNL d   1      29.717  42.325 -27.362  0.00  0.00     0.122 A 
ATOM      8  C   UNL d   1      29.406  43.411 -28.712  0.00  0.00     0.160 A 
ATOM      9  C   UNL d   1      29.435  41.885 -26.509  0.00  0.00     0.058 A 
ATOM     10  C   UNL d   1      28.536  42.083 -26.118  0.00  0.00    -0.045 A 
ATOM     11  C   UNL d   1      27.832  44.280 -28.792  0.00  0.00    -0.045 A 
ATOM     12  C   UNL d   1      28.768  44.075 -29.199  0.00  0.00     0.002 A 
ATOM     13  C   UNL d   1      26.979  42.935 -26.184  0.00  0.00     0.049 A 
ATOM     14  C   UNL d   1      28.257  41.618 -25.228  0.00  0.00     0.047 A 
ATOM     15  C   UNL d   1      29.088  44.543 -30.123  0.00  0.00     0.110 A 
ATOM     16  C   UNL d   1      27.151  44.968 -29.281  0.00  0.00     0.011 A 
ATOM     17  C   UNL d   1      26.678  42.481 -25.296  0.00  0.00     0.105 A 
ATOM     18  C   UNL d   1      27.322  41.818 -24.815  0.00  0.00     0.105 A 
ATOM     19  C   UNL d   1      28.424  45.235 -30.631  0.00  0.00     0.102 A 
ATOM     20  C   UNL d   1      27.448  45.449 -30.207  0.00  0.00     0.040 A 
ATOM     21  C   UNL d   1      25.914  41.927 -23.911  0.00  0.00     0.352 A 
ENDROOT
BRANCH  15  22
ATOM     22  O   UNL d   1      29.989  44.339 -30.506  0.00  0.00    -0.352 OA
ATOM     23  C   UNL d   1      30.099  43.586 -31.155  0.00  0.00     0.210 C 
ENDBRANCH  15  22
BRANCH  19  24
ATOM     24  O   UNL d   1      28.708  45.672 -31.484  0.00  0.00    -0.353 OA
ATOM     25  C   UNL d   1      28.246  46.500 -31.801  0.00  0.00     0.210 C 
ENDBRANCH  19  24
TORSDOF 2
ENDMDL
MODEL 2
REMARK VINA RESULT:    -9.211      2.570      6.432
REMARK INTER + INTRA:          -7.268
REMARK INTER:                 -10.238
REMARK INTRA:                   2.970
REMARK UNBOUND:                 3.020
REMARK  2 active torsions:
REMARK  status: ('A' for Active; 'I' for Inactive)
REMARK    1  A    between atoms: O_3  and  C_17 
REMARK    2  A    between atoms: O_4  and  C_21 
ROOT
ATOM      1  O   UNL d   1      33.725  42.207 -31.514  0.00  0.00    -0.323 OA
ATOM      2  O   UNL d   1      32.996  42.190 -33.023  0.00  0.00    -0.323 OA
ATOM      3  N   UNL d   1      29.512  42.378 -29.856  0.00  0.00    -0.400 N 
ATOM      4  C   UNL d   1      30.509  42.349 -29.782  0.00  0.00     0.117 A 
ATOM      5  C   UNL d   1      30.976  42.359 -28.851  0.00  0.00     0.069 A 
ATOM      6  C   UNL d   1      31.070  42.311 -30.608  0.00  0.00    -0.026 A 
ATOM      7  C   UNL d   1      29.077  42.368 -30.756  0.00  0.00     0.122 A 
ATOM      8  C   UNL d   1      28.914  42.418 -29.004  0.00  0.00     0.160 A 
ATOM      9  C   UNL d   1      29.639  42.330 -31.583  0.00  0.00     0.058 A 
ATOM     10  C   UNL d   1      30.635  42.301 -31.509  0.00  0.00    -0.045 A 
ATOM     11  C   UNL d   1      30.398  42.399 -27.986  0.00  0.00    -0.045 A 
ATOM     12  C   UNL d   1      29.360  42.429 -28.063  0.00  0.00     0.002 A 
ATOM     13  C   UNL d   1      32.108  42.282 -30.515  0.00  0.00     0.049 A 
ATOM     14  C   UNL d   1      31.208  42.261 -32.378  0.00  0.00     0.047 A 
ATOM     15  C   UNL d   1      28.737  42.470 -27.176  0.00  0.00     0.110 A 
ATOM     16  C   UNL d   1      30.885  42.409 -27.017  0.00  0.00     0.011 A 
ATOM     17  C   UNL d   1      32.700  42.242 -31.371  0.00  0.00     0.105 A 
ATOM     18  C   UNL d   1      32.247  42.232 -32.309  0.00  0.00     0.105 A 
ATOM     19  C   UNL d   1      29.201  42.481 -26.195  0.00  0.00     0.102 A 
ATOM     20  C   UNL d   1      30.282  42.451 -26.115  0.00  0.00     0.040 A 
ATOM     21  C   UNL d   1      33.907  42.175 -32.533  0.00  0.00     0.352 A 
ENDROOT
BRANCH  15  22
ATOM     22  O   UNL d   1      27.740  42.498 -27.261  0.00  0.00    -0.352 OA
ATOM     23  C   UNL d   1      27.215  41.648 -27.278  0.00  0.00     0.210 C 
ENDBRANCH  15  22
BRANCH  19  24
ATOM     24  O   UNL d   1      28.636  42.520 -25.371  0.00  0.00    -0.353 OA
ATOM     25  C   UNL d   1      29.054  42.727 -24.487  0.00  0.00     0.210 C 
ENDBRANCH  19  24
TORSDOF 2
ENDMDL
MODEL 3
REMARK VINA RESULT:    -8.971      1.837      5.654
REMARK INTER + INTRA:          -7.000
REMARK INTER:                 -10.008
REMARK INTRA:                   3.009
REMARK UNBOUND:                 3.020
REMARK  2 active torsions:
REMARK  status: ('A' for Active; 'I' for Inactive)
REMARK    1  A    between atoms: O_3  and  C_17 
REMARK    2  A    between atoms: O_4  and  C_21 
ROOT
ATOM      1  O   UNL d   1      28.982  42.642 -32.027  0.00  0.00    -0.323 OA
ATOM      2  O   UNL d   1      30.641  42.682 -32.265  0.00  0.00    -0.323 OA
ATOM      3  N   UNL d   1      29.962  42.402 -27.610  0.00  0.00    -0.400 N 
ATOM      4  C   UNL d   1      29.343  42.437 -28.395  0.00  0.00     0.117 A 
ATOM      5  C   UNL d   1      28.310  42.413 -28.264  0.00  0.00     0.069 A 
ATOM      6  C   UNL d   1      29.715  42.497 -29.322  0.00  0.00    -0.026 A 
ATOM      7  C   UNL d   1      30.951  42.426 -27.751  0.00  0.00     0.122 A 
ATOM      8  C   UNL d   1      29.590  42.340 -26.639  0.00  0.00     0.160 A 
ATOM      9  C   UNL d   1      31.323  42.485 -28.678  0.00  0.00     0.058 A 
ATOM     10  C   UNL d   1      30.704  42.521 -29.463  0.00  0.00    -0.045 A 
ATOM     11  C   UNL d   1      27.916  42.351 -27.301  0.00  0.00    -0.045 A 
ATOM     12  C   UNL d   1      28.560  42.314 -26.484  0.00  0.00     0.002 A 
ATOM     13  C   UNL d   1      29.058  42.533 -30.130  0.00  0.00     0.049 A 
ATOM     14  C   UNL d   1      31.106  42.583 -30.422  0.00  0.00     0.047 A 
ATOM     15  C   UNL d   1      28.173  42.249 -25.473  0.00  0.00     0.110 A 
ATOM     16  C   UNL d   1      26.840  42.326 -27.165  0.00  0.00     0.011 A 
ATOM     17  C   UNL d   1      29.437  42.595 -31.098  0.00  0.00     0.105 A 
ATOM     18  C   UNL d   1      30.468  42.620 -31.245  0.00  0.00     0.105 A 
ATOM     19  C   UNL d   1      27.100  42.223 -25.311  0.00  0.00     0.102 A 
ATOM     20  C   UNL d   1      26.429  42.261 -26.162  0.00  0.00     0.040 A 
ATOM     21  C   UNL d   1      29.725  42.695 -32.746  0.00  0.00     0.352 A 
ENDROOT
BRANCH  15  22
ATOM     22  O   UNL d   1      28.800  42.214 -24.694  0.00  0.00    -0.352 OA
ATOM     23  C   UNL d   1      29.102  43.061 -24.257  0.00  0.00     0.210 C 
ENDBRANCH  15  22
BRANCH  19  24
ATOM     24  O   UNL d   1      26.732  42.163 -24.383  0.00  0.00    -0.353 OA
ATOM     25  C   UNL d   1      25.746  42.218 -24.231  0.00  0.00     0.210 C 
ENDBRANCH  19  24
TORSDOF 2
ENDMDL
MODEL 4
REMARK VINA RESULT:    -8.924      1.957      5.760
REMARK INTER + INTRA:          -6.947
REMARK INTER:                  -9.956
REMARK INTRA:                   3.009
REMARK UNBOUND:                 3.020
REMARK  2 active torsions:
REMARK  status: ('A' for Active; 'I' for Inactive)
REMARK    1  A    between atoms: O_3  and  C_17 
REMARK    2  A    between atoms: O_4  and  C_21 
ROOT
ATOM      1  O   UNL d   1      27.990  43.906 -32.926  0.00  0.00    -0.323 OA
ATOM      2  O   UNL d   1      29.196  43.196 -33.848  0.00  0.00    -0.323 OA
ATOM      3  N   UNL d   1      30.297  42.373 -29.341  0.00  0.00    -0.400 N 
ATOM      4  C   UNL d   1      29.542  42.851 -29.788  0.00  0.00     0.117 A 
ATOM      5  C   UNL d   1      28.784  43.297 -29.229  0.00  0.00     0.069 A 
ATOM      6  C   UNL d   1      29.506  42.906 -30.786  0.00  0.00    -0.026 A 
ATOM      7  C   UNL d   1      31.017  41.949 -29.891  0.00  0.00     0.122 A 
ATOM      8  C   UNL d   1      30.347  42.308 -28.303  0.00  0.00     0.160 A 
ATOM      9  C   UNL d   1      30.981  42.004 -30.888  0.00  0.00     0.058 A 
ATOM     10  C   UNL d   1      30.226  42.482 -31.336  0.00  0.00    -0.045 A 
ATOM     11  C   UNL d   1      28.815  43.244 -28.189  0.00  0.00    -0.045 A 
ATOM     12  C   UNL d   1      29.601  42.747 -27.723  0.00  0.00     0.002 A 
ATOM     13  C   UNL d   1      28.712  43.407 -31.239  0.00  0.00     0.049 A 
ATOM     14  C   UNL d   1      30.202  42.531 -32.377  0.00  0.00     0.047 A 
ATOM     15  C   UNL d   1      29.654  42.679 -26.642  0.00  0.00     0.110 A 
ATOM     16  C   UNL d   1      28.026  43.709 -27.607  0.00  0.00     0.011 A 
ATOM     17  C   UNL d   1      28.668  43.468 -32.278  0.00  0.00     0.105 A 
ATOM     18  C   UNL d   1      29.418  43.027 -32.850  0.00  0.00     0.105 A 
ATOM     19  C   UNL d   1      28.877  43.135 -26.038  0.00  0.00     0.102 A 
ATOM     20  C   UNL d   1      28.057  43.654 -26.524  0.00  0.00     0.040 A 
ATOM     21  C   UNL d   1      28.316  43.738 -33.894  0.00  0.00     0.352 A 
ENDROOT
BRANCH  15  22
ATOM     22  O   UNL d   1      30.414  42.198 -26.204  0.00  0.00    -0.352 OA
ATOM     23  C   UNL d   1      31.278  42.673 -26.039  0.00  0.00     0.210 C 
ENDBRANCH  15  22
BRANCH  19  24
ATOM     24  O   UNL d   1      28.916  43.079 -25.040  0.00  0.00    -0.353 OA
ATOM     25  C   UNL d   1      28.120  43.337 -24.493  0.00  0.00     0.210 C 
ENDBRANCH  19  24
TORSDOF 2
ENDMDL
MODEL 5
REMARK VINA RESULT:    -8.906      1.690      3.232
REMARK INTER + INTRA:          -6.928
REMARK INTER:                  -9.945
REMARK INTRA:                   3.017
REMARK UNBOUND:                 3.020
REMARK  2 active torsions:
REMARK  status: ('A' for Active; 'I' for Inactive)
REMARK    1  A    between atoms: O_3  and  C_17 
REMARK    2  A    between atoms: O_4  and  C_21 
ROOT
ATOM      1  O   UNL d   1      29.056  41.820 -25.360  0.00  0.00    -0.323 OA
ATOM      2  O   UNL d   1      27.705  42.752 -25.015  0.00  0.00    -0.323 OA
ATOM      3  N   UNL d   1      28.764  43.551 -29.537  0.00  0.00    -0.400 N 
ATOM      4  C   UNL d   1      29.170  42.978 -28.826  0.00  0.00     0.117 A 
ATOM      5  C   UNL d   1      30.009  42.393 -29.024  0.00  0.00     0.069 A 
ATOM      6  C   UNL d   1      28.771  42.960 -27.909  0.00  0.00    -0.026 A 
ATOM      7  C   UNL d   1      27.958  44.107 -29.331  0.00  0.00     0.122 A 
ATOM      8  C   UNL d   1      29.168  43.580 -30.496  0.00  0.00     0.160 A 
ATOM      9  C   UNL d   1      27.559  44.089 -28.414  0.00  0.00     0.058 A 
ATOM     10  C   UNL d   1      27.966  43.515 -27.703  0.00  0.00    -0.045 A 
ATOM     11  C   UNL d   1      30.431  42.407 -29.977  0.00  0.00    -0.045 A 
ATOM     12  C   UNL d   1      30.007  43.004 -30.717  0.00  0.00     0.002 A 
ATOM     13  C   UNL d   1      29.206  42.357 -27.178  0.00  0.00     0.049 A 
ATOM     14  C   UNL d   1      27.539  43.507 -26.753  0.00  0.00     0.047 A 
ATOM     15  C   UNL d   1      30.428  43.034 -31.717  0.00  0.00     0.110 A 
ATOM     16  C   UNL d   1      31.304  41.798 -30.184  0.00  0.00     0.011 A 
ATOM     17  C   UNL d   1      28.796  42.333 -26.221  0.00  0.00     0.105 A 
ATOM     18  C   UNL d   1      27.957  42.912 -26.007  0.00  0.00     0.105 A 
ATOM     19  C   UNL d   1      31.302  42.434 -31.948  0.00  0.00     0.102 A 
ATOM     20  C   UNL d   1      31.744  41.812 -31.176  0.00  0.00     0.040 A 
ATOM     21  C   UNL d   1      28.383  42.079 -24.616  0.00  0.00     0.352 A 
ENDROOT
BRANCH  15  22
ATOM     22  O   UNL d   1      30.014  43.611 -32.421  0.00  0.00    -0.352 OA
ATOM     23  C   UNL d   1      29.292  43.245 -33.007  0.00  0.00     0.210 C 
ENDBRANCH  15  22
BRANCH  19  24
ATOM     24  O   UNL d   1      31.699  42.455 -32.866  0.00  0.00    -0.353 OA
ATOM     25  C   UNL d   1      32.683  42.327 -32.989  0.00  0.00     0.210 C 
ENDBRANCH  19  24
TORSDOF 2
ENDMDL
