MODEL 1
REMARK VINA RESULT:    -7.242      0.000      0.000
REMARK INTER + INTRA:          -4.342
REMARK INTER:                  -7.867
REMARK INTRA:                   3.525
REMARK UNBOUND:                 3.536
REMARK  2 active torsions:
REMARK  status: ('A' for Active; 'I' for Inactive)
REMARK    1  A    between atoms: C_5  and  O_1 
REMARK    2  A    between atoms: C_4  and  C_9 
ROOT
ATOM      1  C   UNL d   1      -9.850  12.101   8.614  0.00  0.00     0.028 A 
ATOM      2  C   UNL d   1     -10.273  11.857   9.487  0.00  0.00     0.019 A 
ATOM      3  C   UNL d   1      -9.725  11.849  10.323  0.00  0.00    -0.003 A 
ATOM      4  C   UNL d   1      -8.879  12.338   8.578  0.00  0.00     0.058 A 
ATOM      5  C   UNL d   1      -8.754  12.086  10.287  0.00  0.00     0.009 A 
ATOM      6  C   UNL d   1      -8.331  12.330   9.414  0.00  0.00     0.038 A 
ATOM      7  C   UNL d   1     -10.407  12.114   7.734  0.00  0.00     0.012 A 
ATOM      8  C   UNL d   1     -11.283  11.608   9.541  0.00  0.00    -0.019 A 
ATOM      9  C   UNL d   1     -11.419  11.868   7.764  0.00  0.00     0.034 A 
ATOM     10  C   UNL d   1      -8.951  12.483   7.591  0.00  0.00     0.046 C 
ATOM     11  C   UNL d   1     -11.860  11.614   8.673  0.00  0.00    -0.087 A 
ATOM     12  C   UNL d   1     -12.831  11.377   8.713  0.00  0.00     0.043 C 
ENDROOT
BRANCH   3  13
ATOM     13  C   UNL d   1     -10.148  11.605  11.196  0.00  0.00    -0.018 C 
ATOM     14  C   UNL d   1     -10.507  12.321  11.795  0.00  0.00     0.010 C 
ATOM     15  C   UNL d   1     -10.212  10.646  11.469  0.00  0.00     0.010 C 
ENDBRANCH   3  13
BRANCH   4  16
ATOM     16  O   UNL d   1      -8.074  12.615   8.053  0.00  0.00    -0.390 OA
ATOM     17  H   UNL d   1      -7.519  12.371   8.184  0.00  0.00     0.210 HD
ENDBRANCH   4  16
TORSDOF 2
ENDMDL
MODEL 2
REMARK VINA RESULT:    -7.201     30.583     31.553
REMARK INTER + INTRA:          -4.296
REMARK INTER:                  -7.815
REMARK INTRA:                   3.519
REMARK UNBOUND:                 3.536
REMARK  2 active torsions:
REMARK  status: ('A' for Active; 'I' for Inactive)
REMARK    1  A    between atoms: C_5  and  O_1 
REMARK    2  A    between atoms: C_4  and  C_9 
ROOT
ATOM      1  C   UNL d   1      10.393 -11.977  10.291  0.00  0.00     0.028 A 
ATOM      2  C   UNL d   1      11.079 -11.349  10.659  0.00  0.00     0.019 A 
ATOM      3  C   UNL d   1      10.983 -10.364  10.517  0.00  0.00    -0.003 A 
ATOM      4  C   UNL d   1       9.611 -11.620   9.780  0.00  0.00     0.058 A 
ATOM      5  C   UNL d   1      10.201 -10.007  10.006  0.00  0.00     0.009 A 
ATOM      6  C   UNL d   1       9.515 -10.634   9.638  0.00  0.00     0.038 A 
ATOM      7  C   UNL d   1      10.480 -13.006  10.431  0.00  0.00     0.012 A 
ATOM      8  C   UNL d   1      11.899 -11.706  11.194  0.00  0.00    -0.019 A 
ATOM      9  C   UNL d   1      11.292 -13.385  10.962  0.00  0.00     0.034 A 
ATOM     10  C   UNL d   1       9.271 -12.551   9.650  0.00  0.00     0.046 C 
ATOM     11  C   UNL d   1      12.006 -12.731  11.346  0.00  0.00    -0.087 A 
ATOM     12  C   UNL d   1      12.789 -13.085  11.857  0.00  0.00     0.043 C 
ENDROOT
BRANCH   3  13
ATOM     13  C   UNL d   1      11.669  -9.736  10.885  0.00  0.00    -0.018 C 
ATOM     14  C   UNL d   1      11.554  -9.352  11.801  0.00  0.00     0.010 C 
ATOM     15  C   UNL d   1      12.469  -9.493  10.338  0.00  0.00     0.010 C 
ENDBRANCH   3  13
BRANCH   4  16
ATOM     16  O   UNL d   1       8.764 -11.776   9.273  0.00  0.00    -0.390 OA
ATOM     17  H   UNL d   1       8.550 -11.341   8.886  0.00  0.00     0.210 HD
ENDBRANCH   4  16
TORSDOF 2
ENDMDL
MODEL 3
REMARK VINA RESULT:    -7.178     54.154     55.495
REMARK INTER + INTRA:          -4.271
REMARK INTER:                  -7.790
REMARK INTRA:                   3.519
REMARK UNBOUND:                 3.536
REMARK  2 active torsions:
REMARK  status: ('A' for Active; 'I' for Inactive)
REMARK    1  A    between atoms: C_5  and  O_1 
REMARK    2  A    between atoms: C_4  and  C_9 
ROOT
ATOM      1  C   UNL d   1      -6.939 -43.273  16.061  0.00  0.00     0.028 A 
ATOM      2  C   UNL d   1      -6.943 -42.881  16.981  0.00  0.00     0.019 A 
ATOM      3  C   UNL d   1      -6.093 -42.536  17.381  0.00  0.00    -0.003 A 
ATOM      4  C   UNL d   1      -6.087 -43.321  15.541  0.00  0.00     0.058 A 
ATOM      5  C   UNL d   1      -5.240 -42.584  16.861  0.00  0.00     0.009 A 
ATOM      6  C   UNL d   1      -5.237 -42.977  15.941  0.00  0.00     0.038 A 
ATOM      7  C   UNL d   1      -7.816 -43.636  15.631  0.00  0.00     0.012 A 
ATOM      8  C   UNL d   1      -7.823 -42.824  17.535  0.00  0.00    -0.019 A 
ATOM      9  C   UNL d   1      -8.708 -43.589  16.167  0.00  0.00     0.034 A 
ATOM     10  C   UNL d   1      -6.575 -43.746  14.779  0.00  0.00     0.046 C 
ATOM     11  C   UNL d   1      -8.712 -43.180  17.125  0.00  0.00    -0.087 A 
ATOM     12  C   UNL d   1      -9.563 -43.131  17.648  0.00  0.00     0.043 C 
ENDROOT
BRANCH   3  13
ATOM     13  C   UNL d   1      -6.096 -42.144  18.300  0.00  0.00    -0.018 C 
ATOM     14  C   UNL d   1      -5.927 -42.729  19.094  0.00  0.00     0.010 C 
ATOM     15  C   UNL d   1      -6.269 -41.167  18.427  0.00  0.00     0.010 C 
ENDBRANCH   3  13
BRANCH   4  16
ATOM     16  O   UNL d   1      -5.592 -43.575  14.710  0.00  0.00    -0.390 OA
ATOM     17  H   UNL d   1      -4.989 -43.442  14.654  0.00  0.00     0.210 HD
ENDBRANCH   4  16
TORSDOF 2
ENDMDL
MODEL 4
REMARK VINA RESULT:    -7.163     36.187     37.595
REMARK INTER + INTRA:          -4.255
REMARK INTER:                  -7.797
REMARK INTRA:                   3.541
REMARK UNBOUND:                 3.536
REMARK  2 active torsions:
REMARK  status: ('A' for Active; 'I' for Inactive)
REMARK    1  A    between atoms: C_5  and  O_1 
REMARK    2  A    between atoms: C_4  and  C_9 
ROOT
ATOM      1  C   UNL d   1     -28.172 -19.734  15.321  0.00  0.00     0.028 A 
ATOM      2  C   UNL d   1     -28.683 -20.157  16.069  0.00  0.00     0.019 A 
ATOM      3  C   UNL d   1     -28.520 -21.114  16.308  0.00  0.00    -0.003 A 
ATOM      4  C   UNL d   1     -27.498 -20.268  14.812  0.00  0.00     0.058 A 
ATOM      5  C   UNL d   1     -27.846 -21.649  15.798  0.00  0.00     0.009 A 
ATOM      6  C   UNL d   1     -27.334 -21.226  15.050  0.00  0.00     0.038 A 
ATOM      7  C   UNL d   1     -28.331 -18.738  15.060  0.00  0.00     0.012 A 
ATOM      8  C   UNL d   1     -29.389 -19.613  16.609  0.00  0.00    -0.019 A 
ATOM      9  C   UNL d   1     -29.032 -18.175  15.586  0.00  0.00     0.034 A 
ATOM     10  C   UNL d   1     -27.297 -19.472  14.242  0.00  0.00     0.046 C 
ATOM     11  C   UNL d   1     -29.565 -18.616  16.366  0.00  0.00    -0.087 A 
ATOM     12  C   UNL d   1     -30.240 -18.084  16.877  0.00  0.00     0.043 C 
ENDROOT
BRANCH   3  13
ATOM     13  C   UNL d   1     -29.032 -21.537  17.056  0.00  0.00    -0.018 C 
ATOM     14  C   UNL d   1     -28.699 -21.458  17.996  0.00  0.00     0.010 C 
ATOM     15  C   UNL d   1     -29.875 -22.039  16.864  0.00  0.00     0.010 C 
ENDBRANCH   3  13
BRANCH   4  16
ATOM     16  O   UNL d   1     -26.813 -20.333  14.086  0.00  0.00    -0.390 OA
ATOM     17  H   UNL d   1     -26.982 -20.503  13.514  0.00  0.00     0.210 HD
ENDBRANCH   4  16
TORSDOF 2
ENDMDL
MODEL 5
REMARK VINA RESULT:    -7.151     54.346     55.630
REMARK INTER + INTRA:          -4.242
REMARK INTER:                  -7.763
REMARK INTRA:                   3.521
REMARK UNBOUND:                 3.536
REMARK  2 active torsions:
REMARK  status: ('A' for Active; 'I' for Inactive)
REMARK    1  A    between atoms: C_5  and  O_1 
REMARK    2  A    between atoms: C_4  and  C_9 
ROOT
ATOM      1  C   UNL d   1      -7.586 -43.342  16.207  0.00  0.00     0.028 A 
ATOM      2  C   UNL d   1      -6.889 -42.992  16.833  0.00  0.00     0.019 A 
ATOM      3  C   UNL d   1      -7.147 -42.689  17.750  0.00  0.00    -0.003 A 
ATOM      4  C   UNL d   1      -8.541 -43.389  16.498  0.00  0.00     0.058 A 
ATOM      5  C   UNL d   1      -8.103 -42.736  18.042  0.00  0.00     0.009 A 
ATOM      6  C   UNL d   1      -8.800 -43.087  17.416  0.00  0.00     0.038 A 
ATOM      7  C   UNL d   1      -7.332 -43.661  15.248  0.00  0.00     0.012 A 
ATOM      8  C   UNL d   1      -5.890 -42.936  16.544  0.00  0.00    -0.019 A 
ATOM      9  C   UNL d   1      -6.339 -43.615  14.938  0.00  0.00     0.034 A 
ATOM     10  C   UNL d   1      -8.794 -43.766  15.608  0.00  0.00     0.046 C 
ATOM     11  C   UNL d   1      -5.613 -43.250  15.590  0.00  0.00    -0.087 A 
ATOM     12  C   UNL d   1      -4.657 -43.201  15.301  0.00  0.00     0.043 C 
ENDROOT
BRANCH   3  13
ATOM     13  C   UNL d   1      -6.451 -42.338  18.376  0.00  0.00    -0.018 C 
ATOM     14  C   UNL d   1      -6.213 -41.367  18.367  0.00  0.00     0.010 C 
ATOM     15  C   UNL d   1      -5.991 -42.960  19.011  0.00  0.00     0.010 C 
ENDBRANCH   3  13
BRANCH   4  16
ATOM     16  O   UNL d   1      -9.495 -43.619  16.305  0.00  0.00    -0.390 OA
ATOM     17  H   UNL d   1      -9.949 -43.240  16.491  0.00  0.00     0.210 HD
ENDBRANCH   4  16
TORSDOF 2
ENDMDL
