MODEL 1
REMARK VINA RESULT:    -9.457      0.000      0.000
REMARK INTER + INTRA:          -9.563
REMARK INTER:                 -10.604
REMARK INTRA:                   1.041
REMARK UNBOUND:                 1.000
REMARK  3 active torsions:
REMARK  status: ('A' for Active; 'I' for Inactive)
REMARK    1  A    between atoms: O_2  and  C_10 
REMARK    2  A    between atoms: O_4  and  C_13 
REMARK    3  A    between atoms: C_7  and  C_9 
ROOT
ATOM      1  O   UNL d   1     -34.778 -24.934 -45.310  0.00  0.00    -0.309 OA
ATOM      2  O   UNL d   1     -37.476 -24.929 -43.998  0.00  0.00    -0.287 OA
ATOM      3  C   UNL d   1     -36.328 -25.666 -45.065  0.00  0.00     0.081 A 
ATOM      4  C   UNL d   1     -35.429 -25.668 -45.503  0.00  0.00     0.095 A 
ATOM      5  C   UNL d   1     -35.026 -24.198 -44.679  0.00  0.00     0.090 A 
ATOM      6  C   UNL d   1     -36.576 -24.930 -44.435  0.00  0.00     0.190 A 
ATOM      7  C   UNL d   1     -37.017 -26.423 -45.257  0.00  0.00     0.085 A 
ATOM      8  C   UNL d   1     -35.925 -24.197 -44.242  0.00  0.00     0.094 A 
ATOM      9  C   UNL d   1     -35.156 -26.427 -46.162  0.00  0.00     0.075 A 
ATOM     10  C   UNL d   1     -35.829 -27.195 -46.368  0.00  0.00     0.071 A 
ATOM     11  C   UNL d   1     -36.766 -27.193 -45.912  0.00  0.00     0.074 A 
ENDROOT
BRANCH   5  12
ATOM     12  C   UNL d   1     -34.375 -23.464 -44.486  0.00  0.00    -0.002 A 
ATOM     13  C   UNL d   1     -34.535 -22.546 -44.848  0.00  0.00     0.014 A 
ATOM     14  C   UNL d   1     -33.883 -21.812 -44.655  0.00  0.00     0.001 A 
ATOM     15  C   UNL d   1     -33.072 -21.997 -44.100  0.00  0.00     0.000 A 
ATOM     16  C   UNL d   1     -32.912 -22.915 -43.738  0.00  0.00     0.001 A 
ATOM     17  C   UNL d   1     -33.563 -23.649 -43.931  0.00  0.00     0.014 A 
ENDBRANCH   5  12
BRANCH   7  18
ATOM     18  O   UNL d   1     -37.913 -26.412 -44.814  0.00  0.00    -0.360 OA
ATOM     19  H   UNL d   1     -38.057 -25.958 -44.417  0.00  0.00     0.217 HD
ENDBRANCH   7  18
BRANCH  10  20
ATOM     20  O   UNL d   1     -35.577 -27.929 -46.999  0.00  0.00    -0.361 OA
ATOM     21  H   UNL d   1     -35.917 -28.447 -47.023  0.00  0.00     0.217 HD
ENDBRANCH  10  20
TORSDOF 3
ENDMDL
MODEL 2
REMARK VINA RESULT:    -9.294     32.253     33.713
REMARK INTER + INTRA:          -9.381
REMARK INTER:                 -10.461
REMARK INTRA:                   1.080
REMARK UNBOUND:                 1.000
REMARK  3 active torsions:
REMARK  status: ('A' for Active; 'I' for Inactive)
REMARK    1  A    between atoms: O_2  and  C_10 
REMARK    2  A    between atoms: O_4  and  C_13 
REMARK    3  A    between atoms: C_7  and  C_9 
ROOT
ATOM      1  O   UNL d   1     -41.972 -10.171 -15.079  0.00  0.00    -0.309 OA
ATOM      2  O   UNL d   1     -40.265 -12.321 -16.288  0.00  0.00    -0.287 OA
ATOM      3  C   UNL d   1     -40.719 -10.654 -16.173  0.00  0.00     0.081 A 
ATOM      4  C   UNL d   1     -41.288  -9.937 -15.770  0.00  0.00     0.095 A 
ATOM      5  C   UNL d   1     -42.088 -11.122 -14.791  0.00  0.00     0.090 A 
ATOM      6  C   UNL d   1     -40.834 -11.605 -15.885  0.00  0.00     0.190 A 
ATOM      7  C   UNL d   1     -40.002 -10.425 -16.893  0.00  0.00     0.085 A 
ATOM      8  C   UNL d   1     -41.518 -11.839 -15.194  0.00  0.00     0.094 A 
ATOM      9  C   UNL d   1     -41.180  -8.942 -16.059  0.00  0.00     0.075 A 
ATOM     10  C   UNL d   1     -40.469  -8.691 -16.778  0.00  0.00     0.071 A 
ATOM     11  C   UNL d   1     -39.877  -9.437 -17.197  0.00  0.00     0.074 A 
ENDROOT
BRANCH   5  12
ATOM     12  C   UNL d   1     -42.772 -11.356 -14.101  0.00  0.00    -0.002 A 
ATOM     13  C   UNL d   1     -42.691 -10.992 -13.173  0.00  0.00     0.014 A 
ATOM     14  C   UNL d   1     -43.375 -11.226 -12.483  0.00  0.00     0.001 A 
ATOM     15  C   UNL d   1     -44.141 -11.824 -12.720  0.00  0.00     0.000 A 
ATOM     16  C   UNL d   1     -44.222 -12.188 -13.648  0.00  0.00     0.001 A 
ATOM     17  C   UNL d   1     -43.537 -11.954 -14.338  0.00  0.00     0.014 A 
ENDBRANCH   5  12
BRANCH   7  18
ATOM     18  O   UNL d   1     -39.439 -11.150 -17.289  0.00  0.00    -0.360 OA
ATOM     19  H   UNL d   1     -39.484 -11.282 -17.892  0.00  0.00     0.217 HD
ENDBRANCH   7  18
BRANCH  10  20
ATOM     20  O   UNL d   1     -40.357  -7.738 -17.062  0.00  0.00    -0.361 OA
ATOM     21  H   UNL d   1     -39.973  -7.598 -17.528  0.00  0.00     0.217 HD
ENDBRANCH  10  20
TORSDOF 3
ENDMDL
MODEL 3
REMARK VINA RESULT:    -8.990      1.909      4.809
REMARK INTER + INTRA:          -9.041
REMARK INTER:                 -10.267
REMARK INTRA:                   1.226
REMARK UNBOUND:                 1.000
REMARK  3 active torsions:
REMARK  status: ('A' for Active; 'I' for Inactive)
REMARK    1  A    between atoms: O_2  and  C_10 
REMARK    2  A    between atoms: O_4  and  C_13 
REMARK    3  A    between atoms: C_7  and  C_9 
ROOT
ATOM      1  O   UNL d   1     -36.237 -23.666 -45.248  0.00  0.00    -0.309 OA
ATOM      2  O   UNL d   1     -33.403 -22.973 -44.550  0.00  0.00    -0.287 OA
ATOM      3  C   UNL d   1     -35.028 -22.479 -44.887  0.00  0.00     0.081 A 
ATOM      4  C   UNL d   1     -35.973 -22.710 -45.120  0.00  0.00     0.095 A 
ATOM      5  C   UNL d   1     -35.556 -24.391 -45.144  0.00  0.00     0.090 A 
ATOM      6  C   UNL d   1     -34.348 -23.204 -44.783  0.00  0.00     0.190 A 
ATOM      7  C   UNL d   1     -34.739 -21.488 -44.751  0.00  0.00     0.085 A 
ATOM      8  C   UNL d   1     -34.612 -24.160 -44.911  0.00  0.00     0.094 A 
ATOM      9  C   UNL d   1     -36.693 -21.966 -45.233  0.00  0.00     0.075 A 
ATOM     10  C   UNL d   1     -36.426 -20.968 -45.100  0.00  0.00     0.071 A 
ATOM     11  C   UNL d   1     -35.442 -20.728 -44.858  0.00  0.00     0.074 A 
ENDROOT
BRANCH   5  12
ATOM     12  C   UNL d   1     -35.821 -25.347 -45.272  0.00  0.00    -0.002 A 
ATOM     13  C   UNL d   1     -35.224 -25.966 -45.782  0.00  0.00     0.014 A 
ATOM     14  C   UNL d   1     -35.488 -26.922 -45.910  0.00  0.00     0.001 A 
ATOM     15  C   UNL d   1     -36.349 -27.259 -45.529  0.00  0.00     0.000 A 
ATOM     16  C   UNL d   1     -36.946 -26.639 -45.019  0.00  0.00     0.001 A 
ATOM     17  C   UNL d   1     -36.681 -25.683 -44.891  0.00  0.00     0.014 A 
ENDBRANCH   5  12
BRANCH   7  18
ATOM     18  O   UNL d   1     -33.791 -21.269 -44.518  0.00  0.00    -0.360 OA
ATOM     19  H   UNL d   1     -33.609 -21.272 -43.926  0.00  0.00     0.217 HD
ENDBRANCH   7  18
BRANCH  10  20
ATOM     20  O   UNL d   1     -37.110 -20.246 -45.206  0.00  0.00    -0.361 OA
ATOM     21  H   UNL d   1     -37.548 -20.296 -45.642  0.00  0.00     0.217 HD
ENDBRANCH  10  20
TORSDOF 3
ENDMDL
MODEL 4
REMARK VINA RESULT:    -8.931     31.862     33.432
REMARK INTER + INTRA:          -8.976
REMARK INTER:                  -9.990
REMARK INTRA:                   1.015
REMARK UNBOUND:                 1.000
REMARK  3 active torsions:
REMARK  status: ('A' for Active; 'I' for Inactive)
REMARK    1  A    between atoms: O_2  and  C_10 
REMARK    2  A    between atoms: O_4  and  C_13 
REMARK    3  A    between atoms: C_7  and  C_9 
ROOT
ATOM      1  O   UNL d   1     -40.490  -9.684 -16.216  0.00  0.00    -0.309 OA
ATOM      2  O   UNL d   1     -38.060 -10.093 -14.504  0.00  0.00    -0.287 OA
ATOM      3  C   UNL d   1     -38.768  -9.664 -16.026  0.00  0.00     0.081 A 
ATOM      4  C   UNL d   1     -39.578  -9.527 -16.596  0.00  0.00     0.095 A 
ATOM      5  C   UNL d   1     -40.591  -9.977 -15.266  0.00  0.00     0.090 A 
ATOM      6  C   UNL d   1     -38.870  -9.957 -15.075  0.00  0.00     0.190 A 
ATOM      7  C   UNL d   1     -37.813  -9.505 -16.408  0.00  0.00     0.085 A 
ATOM      8  C   UNL d   1     -39.782 -10.113 -14.695  0.00  0.00     0.094 A 
ATOM      9  C   UNL d   1     -39.488  -9.222 -17.588  0.00  0.00     0.075 A 
ATOM     10  C   UNL d   1     -38.542  -9.057 -17.991  0.00  0.00     0.071 A 
ATOM     11  C   UNL d   1     -37.699  -9.199 -17.397  0.00  0.00     0.074 A 
ENDROOT
BRANCH   5  12
ATOM     12  C   UNL d   1     -41.503 -10.133 -14.886  0.00  0.00    -0.002 A 
ATOM     13  C   UNL d   1     -41.854 -11.065 -14.796  0.00  0.00     0.014 A 
ATOM     14  C   UNL d   1     -42.766 -11.222 -14.416  0.00  0.00     0.001 A 
ATOM     15  C   UNL d   1     -43.326 -10.446 -14.126  0.00  0.00     0.000 A 
ATOM     16  C   UNL d   1     -42.975  -9.514 -14.215  0.00  0.00     0.001 A 
ATOM     17  C   UNL d   1     -42.064  -9.358 -14.595  0.00  0.00     0.014 A 
ENDBRANCH   5  12
BRANCH   7  18
ATOM     18  O   UNL d   1     -37.010  -9.644 -15.828  0.00  0.00    -0.360 OA
ATOM     19  H   UNL d   1     -37.029 -10.059 -15.368  0.00  0.00     0.217 HD
ENDBRANCH   7  18
BRANCH  10  20
ATOM     20  O   UNL d   1     -38.444  -8.764 -18.942  0.00  0.00    -0.361 OA
ATOM     21  H   UNL d   1     -38.812  -9.005 -19.380  0.00  0.00     0.217 HD
ENDBRANCH  10  20
TORSDOF 3
ENDMDL
MODEL 5
REMARK VINA RESULT:    -8.869     31.317     32.839
REMARK INTER + INTRA:          -8.906
REMARK INTER:                  -9.918
REMARK INTRA:                   1.012
REMARK UNBOUND:                 1.000
REMARK  3 active torsions:
REMARK  status: ('A' for Active; 'I' for Inactive)
REMARK    1  A    between atoms: O_2  and  C_10 
REMARK    2  A    between atoms: O_4  and  C_13 
REMARK    3  A    between atoms: C_7  and  C_9 
ROOT
ATOM      1  O   UNL d   1     -40.074  -9.551 -16.103  0.00  0.00    -0.309 OA
ATOM      2  O   UNL d   1     -40.642 -12.492 -15.935  0.00  0.00    -0.287 OA
ATOM      3  C   UNL d   1     -41.050 -10.860 -15.523  0.00  0.00     0.081 A 
ATOM      4  C   UNL d   1     -40.860  -9.879 -15.579  0.00  0.00     0.095 A 
ATOM      5  C   UNL d   1     -39.477 -10.203 -16.570  0.00  0.00     0.090 A 
ATOM      6  C   UNL d   1     -40.453 -11.512 -15.991  0.00  0.00     0.190 A 
ATOM      7  C   UNL d   1     -41.865 -11.216 -14.982  0.00  0.00     0.085 A 
ATOM      8  C   UNL d   1     -39.666 -11.184 -16.514  0.00  0.00     0.094 A 
ATOM      9  C   UNL d   1     -41.473  -9.188 -15.098  0.00  0.00     0.075 A 
ATOM     10  C   UNL d   1     -42.294  -9.522 -14.551  0.00  0.00     0.071 A 
ATOM     11  C   UNL d   1     -42.491 -10.543 -14.493  0.00  0.00     0.074 A 
ENDROOT
BRANCH   5  12
ATOM     12  C   UNL d   1     -38.691  -9.875 -17.093  0.00  0.00    -0.002 A 
ATOM     13  C   UNL d   1     -38.820  -9.512 -18.016  0.00  0.00     0.014 A 
ATOM     14  C   UNL d   1     -38.034  -9.184 -18.539  0.00  0.00     0.001 A 
ATOM     15  C   UNL d   1     -37.118  -9.219 -18.140  0.00  0.00     0.000 A 
ATOM     16  C   UNL d   1     -36.988  -9.581 -17.217  0.00  0.00     0.001 A 
ATOM     17  C   UNL d   1     -37.775  -9.910 -16.694  0.00  0.00     0.014 A 
ENDBRANCH   5  12
BRANCH   7  18
ATOM     18  O   UNL d   1     -42.045 -12.198 -14.933  0.00  0.00    -0.360 OA
ATOM     19  H   UNL d   1     -42.165 -12.464 -14.386  0.00  0.00     0.217 HD
ENDBRANCH   7  18
BRANCH  10  20
ATOM     20  O   UNL d   1     -42.888  -8.867 -14.085  0.00  0.00    -0.361 OA
ATOM     21  H   UNL d   1     -43.504  -8.921 -14.130  0.00  0.00     0.217 HD
ENDBRANCH  10  20
TORSDOF 3
ENDMDL
