MODEL 1
REMARK VINA RESULT:    -7.259      0.000      0.000
REMARK INTER + INTRA:          -4.374
REMARK INTER:                  -9.394
REMARK INTRA:                   5.020
REMARK UNBOUND:                 5.007
REMARK  6 active torsions:
REMARK  status: ('A' for Active; 'I' for Inactive)
REMARK    1  A    between atoms: O_2  and  C_15 
REMARK    2  A    between atoms: O_3  and  C_17 
REMARK    3  A    between atoms: O_4  and  C_11 
REMARK    4  A    between atoms: O_6  and  C_22 
REMARK    5  A    between atoms: O_7  and  C_20 
REMARK    6  A    between atoms: C_10  and  C_13 
ROOT
ATOM      1  O   UNL d   1      29.651  41.761  47.601  0.00  0.00    -0.309 OA
ATOM      2  O   UNL d   1      27.960  41.054  50.062  0.00  0.00    -0.287 OA
ATOM      3  C   UNL d   1      28.747  40.565  48.555  0.00  0.00     0.084 A 
ATOM      4  C   UNL d   1      29.298  40.792  47.752  0.00  0.00     0.096 A 
ATOM      5  C   UNL d   1      29.426  42.503  48.297  0.00  0.00     0.090 A 
ATOM      6  C   UNL d   1      28.416  39.631  48.687  0.00  0.00     0.119 A 
ATOM      7  C   UNL d   1      28.511  41.292  49.263  0.00  0.00     0.190 A 
ATOM      8  C   UNL d   1      29.518  40.085  47.080  0.00  0.00     0.078 A 
ATOM      9  C   UNL d   1      28.635  38.924  48.015  0.00  0.00     0.136 A 
ATOM     10  C   UNL d   1      28.852  42.267  49.134  0.00  0.00     0.094 A 
ATOM     11  C   UNL d   1      29.186  39.150  47.212  0.00  0.00     0.107 A 
ENDROOT
BRANCH   5  12
ATOM     12  C   UNL d   1      29.759  43.436  48.162  0.00  0.00     0.001 A 
ATOM     13  C   UNL d   1      30.611  43.730  48.596  0.00  0.00     0.053 A 
ATOM     14  C   UNL d   1      30.945  44.664  48.462  0.00  0.00     0.099 A 
ATOM     15  C   UNL d   1      30.426  45.303  47.894  0.00  0.00     0.101 A 
ATOM     16  C   UNL d   1      29.574  45.009  47.460  0.00  0.00     0.040 A 
ATOM     17  C   UNL d   1      29.241  44.076  47.594  0.00  0.00     0.017 A 
BRANCH  14  18
ATOM     18  O   UNL d   1      31.796  44.959  48.895  0.00  0.00    -0.358 OA
ATOM     19  H   UNL d   1      32.336  44.710  48.720  0.00  0.00     0.217 HD
ENDBRANCH  14  18
BRANCH  15  20
ATOM     20  O   UNL d   1      30.759  46.236  47.759  0.00  0.00    -0.353 OA
ATOM     21  C   UNL d   1      30.154  46.932  47.374  0.00  0.00     0.210 C 
ENDBRANCH  15  20
ENDBRANCH   5  12
BRANCH   6  22
ATOM     22  O   UNL d   1      27.865  39.404  49.490  0.00  0.00    -0.357 OA
ATOM     23  H   UNL d   1      27.556  39.850  49.789  0.00  0.00     0.218 HD
ENDBRANCH   6  22
BRANCH  11  24
ATOM     24  O   UNL d   1      29.406  38.443  46.540  0.00  0.00    -0.353 OA
ATOM     25  C   UNL d   1      30.191  38.558  45.931  0.00  0.00     0.210 C 
ENDBRANCH  11  24
BRANCH   9  26
ATOM     26  O   UNL d   1      28.304  37.989  48.146  0.00  0.00    -0.351 OA
ATOM     27  C   UNL d   1      27.361  37.755  47.909  0.00  0.00     0.210 C 
ENDBRANCH   9  26
TORSDOF 6
ENDMDL
MODEL 2
REMARK VINA RESULT:    -5.786      4.650      6.580
REMARK INTER + INTRA:          -2.470
REMARK INTER:                  -7.527
REMARK INTRA:                   5.056
REMARK UNBOUND:                 5.007
REMARK  6 active torsions:
REMARK  status: ('A' for Active; 'I' for Inactive)
REMARK    1  A    between atoms: O_2  and  C_15 
REMARK    2  A    between atoms: O_3  and  C_17 
REMARK    3  A    between atoms: O_4  and  C_11 
REMARK    4  A    between atoms: O_6  and  C_22 
REMARK    5  A    between atoms: O_7  and  C_20 
REMARK    6  A    between atoms: C_10  and  C_13 
ROOT
ATOM      1  O   UNL d   1      27.237  38.677  43.790  0.00  0.00    -0.309 OA
ATOM      2  O   UNL d   1      27.636  39.674  46.665  0.00  0.00    -0.287 OA
ATOM      3  C   UNL d   1      28.226  38.771  45.262  0.00  0.00     0.084 A 
ATOM      4  C   UNL d   1      28.100  38.445  44.326  0.00  0.00     0.096 A 
ATOM      5  C   UNL d   1      26.496  39.258  44.236  0.00  0.00     0.090 A 
ATOM      6  C   UNL d   1      29.060  38.540  45.764  0.00  0.00     0.119 A 
ATOM      7  C   UNL d   1      27.499  39.353  45.728  0.00  0.00     0.190 A 
ATOM      8  C   UNL d   1      28.807  37.887  43.891  0.00  0.00     0.078 A 
ATOM      9  C   UNL d   1      29.767  37.983  45.329  0.00  0.00     0.136 A 
ATOM     10  C   UNL d   1      26.628  39.598  45.212  0.00  0.00     0.094 A 
ATOM     11  C   UNL d   1      29.640  37.656  44.392  0.00  0.00     0.107 A 
ENDROOT
BRANCH   5  12
ATOM     12  C   UNL d   1      25.664  39.487  43.732  0.00  0.00     0.001 A 
ATOM     13  C   UNL d   1      25.490  40.433  43.459  0.00  0.00     0.053 A 
ATOM     14  C   UNL d   1      24.657  40.664  42.955  0.00  0.00     0.099 A 
ATOM     15  C   UNL d   1      24.000  39.947  42.722  0.00  0.00     0.101 A 
ATOM     16  C   UNL d   1      24.174  39.000  42.995  0.00  0.00     0.040 A 
ATOM     17  C   UNL d   1      25.006  38.771  43.499  0.00  0.00     0.017 A 
BRANCH  14  18
ATOM     18  O   UNL d   1      24.482  41.610  42.682  0.00  0.00    -0.358 OA
ATOM     19  H   UNL d   1      24.627  42.075  43.064  0.00  0.00     0.217 HD
ENDBRANCH  14  18
BRANCH  15  20
ATOM     20  O   UNL d   1      23.168  40.176  42.218  0.00  0.00    -0.353 OA
ATOM     21  C   UNL d   1      22.602  39.449  41.828  0.00  0.00     0.210 C 
ENDBRANCH  15  20
ENDBRANCH   5  12
BRANCH   6  22
ATOM     22  O   UNL d   1      29.186  38.867  46.701  0.00  0.00    -0.357 OA
ATOM     23  H   UNL d   1      28.983  39.430  46.863  0.00  0.00     0.218 HD
ENDBRANCH   6  22
BRANCH  11  24
ATOM     24  O   UNL d   1      30.347  37.098  43.958  0.00  0.00    -0.353 OA
ATOM     25  C   UNL d   1      30.159  36.642  43.088  0.00  0.00     0.210 C 
ENDBRANCH  11  24
BRANCH   9  26
ATOM     26  O   UNL d   1      30.600  37.751  45.831  0.00  0.00    -0.351 OA
ATOM     27  C   UNL d   1      31.339  38.421  45.909  0.00  0.00     0.210 C 
ENDBRANCH   9  26
TORSDOF 6
ENDMDL
MODEL 3
REMARK VINA RESULT:    -5.758     25.142     28.149
REMARK INTER + INTRA:          -2.434
REMARK INTER:                  -7.506
REMARK INTRA:                   5.072
REMARK UNBOUND:                 5.007
REMARK  6 active torsions:
REMARK  status: ('A' for Active; 'I' for Inactive)
REMARK    1  A    between atoms: O_2  and  C_15 
REMARK    2  A    between atoms: O_3  and  C_17 
REMARK    3  A    between atoms: O_4  and  C_11 
REMARK    4  A    between atoms: O_6  and  C_22 
REMARK    5  A    between atoms: O_7  and  C_20 
REMARK    6  A    between atoms: C_10  and  C_13 
ROOT
ATOM      1  O   UNL d   1      46.517  19.765  46.876  0.00  0.00    -0.309 OA
ATOM      2  O   UNL d   1      46.227  19.712  49.930  0.00  0.00    -0.287 OA
ATOM      3  C   UNL d   1      47.246  19.606  48.488  0.00  0.00     0.084 A 
ATOM      4  C   UNL d   1      47.344  19.623  47.493  0.00  0.00     0.096 A 
ATOM      5  C   UNL d   1      45.574  19.891  47.301  0.00  0.00     0.090 A 
ATOM      6  C   UNL d   1      48.049  19.469  49.067  0.00  0.00     0.119 A 
ATOM      7  C   UNL d   1      46.313  19.731  48.934  0.00  0.00     0.190 A 
ATOM      8  C   UNL d   1      48.246  19.502  47.077  0.00  0.00     0.078 A 
ATOM      9  C   UNL d   1      48.950  19.348  48.652  0.00  0.00     0.136 A 
ATOM     10  C   UNL d   1      45.472  19.874  48.338  0.00  0.00     0.094 A 
ATOM     11  C   UNL d   1      49.049  19.364  47.657  0.00  0.00     0.107 A 
ENDROOT
BRANCH   5  12
ATOM     12  C   UNL d   1      44.774  20.028  46.718  0.00  0.00     0.001 A 
ATOM     13  C   UNL d   1      44.093  19.302  46.626  0.00  0.00     0.053 A 
ATOM     14  C   UNL d   1      43.291  19.438  46.043  0.00  0.00     0.099 A 
ATOM     15  C   UNL d   1      43.171  20.302  45.553  0.00  0.00     0.101 A 
ATOM     16  C   UNL d   1      43.852  21.029  45.646  0.00  0.00     0.040 A 
ATOM     17  C   UNL d   1      44.653  20.891  46.228  0.00  0.00     0.017 A 
BRANCH  14  18
ATOM     18  O   UNL d   1      42.610  18.712  45.950  0.00  0.00    -0.358 OA
ATOM     19  H   UNL d   1      42.790  18.128  45.851  0.00  0.00     0.217 HD
ENDBRANCH  14  18
BRANCH  15  20
ATOM     20  O   UNL d   1      42.370  20.439  44.971  0.00  0.00    -0.353 OA
ATOM     21  C   UNL d   1      42.399  21.111  44.231  0.00  0.00     0.210 C 
ENDBRANCH  15  20
ENDBRANCH   5  12
BRANCH   6  22
ATOM     22  O   UNL d   1      47.950  19.452  50.062  0.00  0.00    -0.357 OA
ATOM     23  H   UNL d   1      47.538  19.073  50.327  0.00  0.00     0.218 HD
ENDBRANCH   6  22
BRANCH  11  24
ATOM     24  O   UNL d   1      49.950  19.244  47.242  0.00  0.00    -0.353 OA
ATOM     25  C   UNL d   1      50.062  19.341  46.253  0.00  0.00     0.210 C 
ENDBRANCH  11  24
BRANCH   9  26
ATOM     26  O   UNL d   1      49.754  19.211  49.232  0.00  0.00    -0.351 OA
ATOM     27  C   UNL d   1      49.900  18.330  49.682  0.00  0.00     0.210 C 
ENDBRANCH   9  26
TORSDOF 6
ENDMDL
MODEL 4
REMARK VINA RESULT:    -5.694      1.933      2.310
REMARK INTER + INTRA:          -2.351
REMARK INTER:                  -7.396
REMARK INTRA:                   5.044
REMARK UNBOUND:                 5.007
REMARK  6 active torsions:
REMARK  status: ('A' for Active; 'I' for Inactive)
REMARK    1  A    between atoms: O_2  and  C_15 
REMARK    2  A    between atoms: O_3  and  C_17 
REMARK    3  A    between atoms: O_4  and  C_11 
REMARK    4  A    between atoms: O_6  and  C_22 
REMARK    5  A    between atoms: O_7  and  C_20 
REMARK    6  A    between atoms: C_10  and  C_13 
ROOT
ATOM      1  O   UNL d   1      28.061  41.450  47.131  0.00  0.00    -0.309 OA
ATOM      2  O   UNL d   1      26.414  40.511  49.544  0.00  0.00    -0.287 OA
ATOM      3  C   UNL d   1      26.850  40.358  47.836  0.00  0.00     0.084 A 
ATOM      4  C   UNL d   1      27.385  40.662  47.047  0.00  0.00     0.096 A 
ATOM      5  C   UNL d   1      28.181  41.928  48.048  0.00  0.00     0.090 A 
ATOM      6  C   UNL d   1      26.205  39.600  47.741  0.00  0.00     0.119 A 
ATOM      7  C   UNL d   1      26.954  40.822  48.762  0.00  0.00     0.190 A 
ATOM      8  C   UNL d   1      27.275  40.207  46.164  0.00  0.00     0.078 A 
ATOM      9  C   UNL d   1      26.094  39.146  46.857  0.00  0.00     0.136 A 
ATOM     10  C   UNL d   1      27.624  41.612  48.870  0.00  0.00     0.094 A 
ATOM     11  C   UNL d   1      26.629  39.449  46.068  0.00  0.00     0.107 A 
ENDROOT
BRANCH   5  12
ATOM     12  C   UNL d   1      28.828  42.686  48.140  0.00  0.00     0.001 A 
ATOM     13  C   UNL d   1      28.610  43.578  47.745  0.00  0.00     0.053 A 
ATOM     14  C   UNL d   1      29.256  44.337  47.836  0.00  0.00     0.099 A 
ATOM     15  C   UNL d   1      30.119  44.201  48.323  0.00  0.00     0.101 A 
ATOM     16  C   UNL d   1      30.337  43.309  48.718  0.00  0.00     0.040 A 
ATOM     17  C   UNL d   1      29.691  42.551  48.626  0.00  0.00     0.017 A 
BRANCH  14  18
ATOM     18  O   UNL d   1      29.040  45.230  47.442  0.00  0.00    -0.358 OA
ATOM     19  H   UNL d   1      29.477  45.552  47.144  0.00  0.00     0.217 HD
ENDBRANCH  14  18
BRANCH  15  20
ATOM     20  O   UNL d   1      30.765  44.959  48.415  0.00  0.00    -0.353 OA
ATOM     21  C   UNL d   1      31.667  44.802  48.817  0.00  0.00     0.210 C 
ENDBRANCH  15  20
ENDBRANCH   5  12
BRANCH   6  22
ATOM     22  O   UNL d   1      25.670  39.297  48.529  0.00  0.00    -0.357 OA
ATOM     23  H   UNL d   1      25.317  39.702  48.839  0.00  0.00     0.218 HD
ENDBRANCH   6  22
BRANCH  11  24
ATOM     24  O   UNL d   1      26.519  38.994  45.184  0.00  0.00    -0.353 OA
ATOM     25  C   UNL d   1      26.831  39.445  44.348  0.00  0.00     0.210 C 
ENDBRANCH  11  24
BRANCH   9  26
ATOM     26  O   UNL d   1      25.449  38.388  46.762  0.00  0.00    -0.351 OA
ATOM     27  C   UNL d   1      25.705  37.472  47.070  0.00  0.00     0.210 C 
ENDBRANCH   9  26
TORSDOF 6
ENDMDL
MODEL 5
REMARK VINA RESULT:    -5.635      2.416      4.694
REMARK INTER + INTRA:          -2.275
REMARK INTER:                  -7.496
REMARK INTRA:                   5.221
REMARK UNBOUND:                 5.007
REMARK  6 active torsions:
REMARK  status: ('A' for Active; 'I' for Inactive)
REMARK    1  A    between atoms: O_2  and  C_15 
REMARK    2  A    between atoms: O_3  and  C_17 
REMARK    3  A    between atoms: O_4  and  C_11 
REMARK    4  A    between atoms: O_6  and  C_22 
REMARK    5  A    between atoms: O_7  and  C_20 
REMARK    6  A    between atoms: C_10  and  C_13 
ROOT
ATOM      1  O   UNL d   1      28.791  38.817  46.083  0.00  0.00    -0.309 OA
ATOM      2  O   UNL d   1      31.653  38.332  45.087  0.00  0.00    -0.287 OA
ATOM      3  C   UNL d   1      29.920  37.989  44.990  0.00  0.00     0.084 A 
ATOM      4  C   UNL d   1      28.986  38.144  45.312  0.00  0.00     0.096 A 
ATOM      5  C   UNL d   1      29.580  39.335  46.524  0.00  0.00     0.090 A 
ATOM      6  C   UNL d   1      30.092  37.339  44.249  0.00  0.00     0.119 A 
ATOM      7  C   UNL d   1      30.723  38.495  45.417  0.00  0.00     0.190 A 
ATOM      8  C   UNL d   1      28.224  37.651  44.893  0.00  0.00     0.078 A 
ATOM      9  C   UNL d   1      29.330  36.846  43.830  0.00  0.00     0.136 A 
ATOM     10  C   UNL d   1      30.553  39.173  46.189  0.00  0.00     0.094 A 
ATOM     11  C   UNL d   1      28.396  37.002  44.152  0.00  0.00     0.107 A 
ENDROOT
BRANCH   5  12
ATOM     12  C   UNL d   1      29.404  39.983  47.265  0.00  0.00     0.001 A 
ATOM     13  C   UNL d   1      29.382  40.965  47.075  0.00  0.00     0.053 A 
ATOM     14  C   UNL d   1      29.206  41.614  47.815  0.00  0.00     0.099 A 
ATOM     15  C   UNL d   1      29.054  41.281  48.746  0.00  0.00     0.101 A 
ATOM     16  C   UNL d   1      29.077  40.299  48.936  0.00  0.00     0.040 A 
ATOM     17  C   UNL d   1      29.252  39.651  48.195  0.00  0.00     0.017 A 
BRANCH  14  18
ATOM     18  O   UNL d   1      29.183  42.596  47.626  0.00  0.00    -0.358 OA
ATOM     19  H   UNL d   1      29.648  42.863  47.316  0.00  0.00     0.217 HD
ENDBRANCH  14  18
BRANCH  15  20
ATOM     20  O   UNL d   1      28.878  41.929  49.486  0.00  0.00    -0.353 OA
ATOM     21  C   UNL d   1      28.068  41.824  50.062  0.00  0.00     0.210 C 
ENDBRANCH  15  20
ENDBRANCH   5  12
BRANCH   6  22
ATOM     22  O   UNL d   1      31.026  37.184  43.927  0.00  0.00    -0.357 OA
ATOM     23  H   UNL d   1      31.178  37.316  43.341  0.00  0.00     0.218 HD
ENDBRANCH   6  22
BRANCH  11  24
ATOM     24  O   UNL d   1      27.634  36.508  43.732  0.00  0.00    -0.353 OA
ATOM     25  C   UNL d   1      26.700  36.663  44.055  0.00  0.00     0.210 C 
ENDBRANCH  11  24
BRANCH   9  26
ATOM     26  O   UNL d   1      29.502  36.197  43.089  0.00  0.00    -0.351 OA
ATOM     27  C   UNL d   1      29.803  35.267  43.299  0.00  0.00     0.210 C 
ENDBRANCH   9  26
TORSDOF 6
ENDMDL
