MODEL 1
REMARK VINA RESULT:    -8.236      0.000      0.000
REMARK INTER + INTRA:          -7.819
REMARK INTER:                 -10.085
REMARK INTRA:                   2.266
REMARK UNBOUND:                 2.102
REMARK  5 active torsions:
REMARK  status: ('A' for Active; 'I' for Inactive)
REMARK    1  A    between atoms: O_2  and  C_13 
REMARK    2  A    between atoms: O_3  and  C_19 
REMARK    3  A    between atoms: O_5  and  C_17 
REMARK    4  A    between atoms: O_6  and  C_21 
REMARK    5  A    between atoms: C_8  and  C_10 
ROOT
ATOM      1  O   UNL d   1       1.445 -10.025 -37.306  0.00  0.00    -0.309 OA
ATOM      2  O   UNL d   1       2.058 -12.956 -37.486  0.00  0.00    -0.287 OA
ATOM      3  C   UNL d   1       1.501 -11.492 -38.225  0.00  0.00     0.081 A 
ATOM      4  C   UNL d   1       1.798 -10.512 -36.507  0.00  0.00     0.090 A 
ATOM      5  C   UNL d   1       1.296 -10.515 -38.165  0.00  0.00     0.095 A 
ATOM      6  C   UNL d   1       1.853 -11.979 -37.426  0.00  0.00     0.190 A 
ATOM      7  C   UNL d   1       2.002 -11.489 -36.567  0.00  0.00     0.094 A 
ATOM      8  C   UNL d   1       1.351 -12.015 -39.113  0.00  0.00     0.085 A 
ATOM      9  C   UNL d   1       0.928  -9.994 -38.989  0.00  0.00     0.075 A 
ATOM     10  C   UNL d   1       0.771 -10.498 -39.887  0.00  0.00     0.071 A 
ATOM     11  C   UNL d   1       0.984 -11.515 -39.949  0.00  0.00     0.074 A 
ENDROOT
BRANCH   4  12
ATOM     12  C   UNL d   1       1.946 -10.022 -35.648  0.00  0.00     0.001 A 
ATOM     13  C   UNL d   1       2.620 -10.359 -34.990  0.00  0.00     0.054 A 
ATOM     14  C   UNL d   1       2.768  -9.869 -34.131  0.00  0.00     0.102 A 
ATOM     15  C   UNL d   1       2.243  -9.041 -33.930  0.00  0.00     0.099 A 
ATOM     16  C   UNL d   1       1.570  -8.704 -34.589  0.00  0.00     0.040 A 
ATOM     17  C   UNL d   1       1.422  -9.194 -35.447  0.00  0.00     0.017 A 
BRANCH  14  18
ATOM     18  O   UNL d   1       3.442 -10.206 -33.473  0.00  0.00    -0.353 OA
ATOM     19  C   UNL d   1       3.524 -11.187 -33.300  0.00  0.00     0.210 C 
ENDBRANCH  14  18
BRANCH  15  20
ATOM     20  O   UNL d   1       2.392  -8.551 -33.072  0.00  0.00    -0.358 OA
ATOM     21  H   UNL d   1       2.952  -8.319 -32.940  0.00  0.00     0.217 HD
ENDBRANCH  15  20
ENDBRANCH   4  12
BRANCH   8  22
ATOM     22  O   UNL d   1       1.559 -12.993 -39.161  0.00  0.00    -0.360 OA
ATOM     23  H   UNL d   1       2.061 -13.187 -39.467  0.00  0.00     0.217 HD
ENDBRANCH   8  22
BRANCH  10  24
ATOM     24  O   UNL d   1       0.418 -10.007 -40.683  0.00  0.00    -0.361 OA
ATOM     25  H   UNL d   1       0.034 -10.292 -41.078  0.00  0.00     0.217 HD
ENDBRANCH  10  24
TORSDOF 5
ENDMDL
MODEL 2
REMARK VINA RESULT:    -6.737     51.988     55.268
REMARK INTER + INTRA:          -6.014
REMARK INTER:                  -7.854
REMARK INTRA:                   1.840
REMARK UNBOUND:                 2.102
REMARK  5 active torsions:
REMARK  status: ('A' for Active; 'I' for Inactive)
REMARK    1  A    between atoms: O_2  and  C_13 
REMARK    2  A    between atoms: O_3  and  C_19 
REMARK    3  A    between atoms: O_5  and  C_17 
REMARK    4  A    between atoms: O_6  and  C_21 
REMARK    5  A    between atoms: C_8  and  C_10 
ROOT
ATOM      1  O   UNL d   1      -0.005 -18.231  17.419  0.00  0.00    -0.309 OA
ATOM      2  O   UNL d   1      -2.740 -19.370  16.948  0.00  0.00    -0.287 OA
ATOM      3  C   UNL d   1      -1.223 -18.806  16.330  0.00  0.00     0.081 A 
ATOM      4  C   UNL d   1      -0.610 -18.415  18.193  0.00  0.00     0.090 A 
ATOM      5  C   UNL d   1      -0.311 -18.427  16.487  0.00  0.00     0.095 A 
ATOM      6  C   UNL d   1      -1.828 -18.990  17.105  0.00  0.00     0.190 A 
ATOM      7  C   UNL d   1      -1.522 -18.795  18.036  0.00  0.00     0.094 A 
ATOM      8  C   UNL d   1      -1.556 -19.015  15.366  0.00  0.00     0.085 A 
ATOM      9  C   UNL d   1       0.331 -18.229  15.691  0.00  0.00     0.075 A 
ATOM     10  C   UNL d   1       0.018 -18.430  14.718  0.00  0.00     0.071 A 
ATOM     11  C   UNL d   1      -0.931 -18.826  14.554  0.00  0.00     0.074 A 
ENDROOT
BRANCH   4  12
ATOM     12  C   UNL d   1      -0.303 -18.220  19.125  0.00  0.00     0.001 A 
ATOM     13  C   UNL d   1       0.287 -18.869  19.604  0.00  0.00     0.054 A 
ATOM     14  C   UNL d   1       0.594 -18.674  20.535  0.00  0.00     0.102 A 
ATOM     15  C   UNL d   1       0.310 -17.829  20.988  0.00  0.00     0.099 A 
ATOM     16  C   UNL d   1      -0.281 -17.179  20.509  0.00  0.00     0.040 A 
ATOM     17  C   UNL d   1      -0.587 -17.375  19.578  0.00  0.00     0.017 A 
BRANCH  14  18
ATOM     18  O   UNL d   1       1.184 -19.324  21.014  0.00  0.00    -0.353 OA
ATOM     19  C   UNL d   1       1.651 -20.045  20.503  0.00  0.00     0.210 C 
ENDBRANCH  14  18
BRANCH  15  20
ATOM     20  O   UNL d   1       0.616 -17.633  21.920  0.00  0.00    -0.358 OA
ATOM     21  H   UNL d   1       1.213 -17.506  22.029  0.00  0.00     0.217 HD
ENDBRANCH  15  20
ENDBRANCH   4  12
BRANCH   8  22
ATOM     22  O   UNL d   1      -2.469 -19.394  15.221  0.00  0.00    -0.360 OA
ATOM     23  H   UNL d   1      -2.709 -19.790  15.633  0.00  0.00     0.217 HD
ENDBRANCH   8  22
BRANCH  10  24
ATOM     24  O   UNL d   1       0.627 -18.245  13.946  0.00  0.00    -0.361 OA
ATOM     25  H   UNL d   1       1.080 -17.826  14.003  0.00  0.00     0.217 HD
ENDBRANCH  10  24
TORSDOF 5
ENDMDL
MODEL 3
REMARK VINA RESULT:    -6.643     24.829     26.965
REMARK INTER + INTRA:          -5.900
REMARK INTER:                  -7.719
REMARK INTRA:                   1.819
REMARK UNBOUND:                 2.102
REMARK  5 active torsions:
REMARK  status: ('A' for Active; 'I' for Inactive)
REMARK    1  A    between atoms: O_2  and  C_13 
REMARK    2  A    between atoms: O_3  and  C_19 
REMARK    3  A    between atoms: O_5  and  C_17 
REMARK    4  A    between atoms: O_6  and  C_21 
REMARK    5  A    between atoms: C_8  and  C_10 
ROOT
ATOM      1  O   UNL d   1      -1.112 -20.382 -11.516  0.00  0.00    -0.309 OA
ATOM      2  O   UNL d   1      -1.767 -18.543 -13.794  0.00  0.00    -0.287 OA
ATOM      3  C   UNL d   1      -1.503 -20.143 -13.186  0.00  0.00     0.081 A 
ATOM      4  C   UNL d   1      -1.158 -19.395 -11.364  0.00  0.00     0.090 A 
ATOM      5  C   UNL d   1      -1.285 -20.757 -12.427  0.00  0.00     0.095 A 
ATOM      6  C   UNL d   1      -1.549 -19.156 -13.034  0.00  0.00     0.190 A 
ATOM      7  C   UNL d   1      -1.377 -18.782 -12.123  0.00  0.00     0.094 A 
ATOM      8  C   UNL d   1      -1.684 -20.519 -14.141  0.00  0.00     0.085 A 
ATOM      9  C   UNL d   1      -1.233 -21.787 -12.570  0.00  0.00     0.075 A 
ATOM     10  C   UNL d   1      -1.411 -22.184 -13.516  0.00  0.00     0.071 A 
ATOM     11  C   UNL d   1      -1.638 -21.546 -14.306  0.00  0.00     0.074 A 
ENDROOT
BRANCH   4  12
ATOM     12  C   UNL d   1      -0.986 -19.021 -10.453  0.00  0.00     0.001 A 
ATOM     13  C   UNL d   1      -0.071 -18.699 -10.209  0.00  0.00     0.054 A 
ATOM     14  C   UNL d   1       0.101 -18.325  -9.298  0.00  0.00     0.102 A 
ATOM     15  C   UNL d   1      -0.642 -18.272  -8.630  0.00  0.00     0.099 A 
ATOM     16  C   UNL d   1      -1.557 -18.594  -8.874  0.00  0.00     0.040 A 
ATOM     17  C   UNL d   1      -1.729 -18.968  -9.785  0.00  0.00     0.017 A 
BRANCH  14  18
ATOM     18  O   UNL d   1       1.016 -18.004  -9.054  0.00  0.00    -0.353 OA
ATOM     19  C   UNL d   1       1.731 -17.954  -9.751  0.00  0.00     0.210 C 
ENDBRANCH  14  18
BRANCH  15  20
ATOM     20  O   UNL d   1      -0.470 -17.898  -7.719  0.00  0.00    -0.358 OA
ATOM     21  H   UNL d   1      -0.288 -18.272  -7.259  0.00  0.00     0.217 HD
ENDBRANCH  15  20
ENDBRANCH   4  12
BRANCH   8  22
ATOM     22  O   UNL d   1      -1.902 -19.896 -14.892  0.00  0.00    -0.360 OA
ATOM     23  H   UNL d   1      -1.747 -19.298 -14.853  0.00  0.00     0.217 HD
ENDBRANCH   8  22
BRANCH  10  24
ATOM     24  O   UNL d   1      -1.364 -23.173 -13.664  0.00  0.00    -0.361 OA
ATOM     25  H   UNL d   1      -1.096 -23.536 -13.239  0.00  0.00     0.217 HD
ENDBRANCH  10  24
TORSDOF 5
ENDMDL
MODEL 4
REMARK VINA RESULT:    -6.375     53.367     56.894
REMARK INTER + INTRA:          -5.578
REMARK INTER:                  -7.402
REMARK INTRA:                   1.824
REMARK UNBOUND:                 2.102
REMARK  5 active torsions:
REMARK  status: ('A' for Active; 'I' for Inactive)
REMARK    1  A    between atoms: O_2  and  C_13 
REMARK    2  A    between atoms: O_3  and  C_19 
REMARK    3  A    between atoms: O_5  and  C_17 
REMARK    4  A    between atoms: O_6  and  C_21 
REMARK    5  A    between atoms: C_8  and  C_10 
ROOT
ATOM      1  O   UNL d   1       0.535 -19.371  19.498  0.00  0.00    -0.309 OA
ATOM      2  O   UNL d   1       0.036 -17.085  21.376  0.00  0.00    -0.287 OA
ATOM      3  C   UNL d   1       0.822 -18.586  21.015  0.00  0.00     0.081 A 
ATOM      4  C   UNL d   1      -0.085 -18.632  19.233  0.00  0.00     0.090 A 
ATOM      5  C   UNL d   1       0.988 -19.348  20.389  0.00  0.00     0.095 A 
ATOM      6  C   UNL d   1       0.202 -17.847  20.750  0.00  0.00     0.190 A 
ATOM      7  C   UNL d   1      -0.251 -17.870  19.859  0.00  0.00     0.094 A 
ATOM      8  C   UNL d   1       1.287 -18.548  21.946  0.00  0.00     0.085 A 
ATOM      9  C   UNL d   1       1.631 -20.125  20.651  0.00  0.00     0.075 A 
ATOM     10  C   UNL d   1       2.107 -20.107  21.578  0.00  0.00     0.071 A 
ATOM     11  C   UNL d   1       1.934 -19.314  22.229  0.00  0.00     0.074 A 
ENDROOT
BRANCH   4  12
ATOM     12  C   UNL d   1      -0.539 -18.655  18.342  0.00  0.00     0.001 A 
ATOM     13  C   UNL d   1      -0.068 -18.305  17.533  0.00  0.00     0.054 A 
ATOM     14  C   UNL d   1      -0.522 -18.328  16.642  0.00  0.00     0.102 A 
ATOM     15  C   UNL d   1      -1.446 -18.702  16.561  0.00  0.00     0.099 A 
ATOM     16  C   UNL d   1      -1.916 -19.053  17.370  0.00  0.00     0.040 A 
ATOM     17  C   UNL d   1      -1.462 -19.029  18.261  0.00  0.00     0.017 A 
BRANCH  14  18
ATOM     18  O   UNL d   1      -0.051 -17.977  15.832  0.00  0.00    -0.353 OA
ATOM     19  C   UNL d   1       0.875 -17.608  15.912  0.00  0.00     0.210 C 
ENDBRANCH  14  18
BRANCH  15  20
ATOM     20  O   UNL d   1      -1.899 -18.725  15.670  0.00  0.00    -0.358 OA
ATOM     21  H   UNL d   1      -2.518 -18.746  15.637  0.00  0.00     0.217 HD
ENDBRANCH  15  20
ENDBRANCH   4  12
BRANCH   8  22
ATOM     22  O   UNL d   1       1.114 -17.781  22.564  0.00  0.00    -0.360 OA
ATOM     23  H   UNL d   1       0.725 -17.850  23.042  0.00  0.00     0.217 HD
ENDBRANCH   8  22
BRANCH  10  24
ATOM     24  O   UNL d   1       2.726 -20.848  21.839  0.00  0.00    -0.361 OA
ATOM     25  H   UNL d   1       2.762 -21.359  21.489  0.00  0.00     0.217 HD
ENDBRANCH  10  24
TORSDOF 5
ENDMDL
MODEL 5
REMARK VINA RESULT:    -6.375     20.715     23.910
REMARK INTER + INTRA:          -5.578
REMARK INTER:                  -7.476
REMARK INTRA:                   1.898
REMARK UNBOUND:                 2.102
REMARK  5 active torsions:
REMARK  status: ('A' for Active; 'I' for Inactive)
REMARK    1  A    between atoms: O_2  and  C_13 
REMARK    2  A    between atoms: O_3  and  C_19 
REMARK    3  A    between atoms: O_5  and  C_17 
REMARK    4  A    between atoms: O_6  and  C_21 
REMARK    5  A    between atoms: C_8  and  C_10 
ROOT
ATOM      1  O   UNL d   1      -1.357 -20.444 -15.277  0.00  0.00    -0.309 OA
ATOM      2  O   UNL d   1      -1.905 -18.208 -13.354  0.00  0.00    -0.287 OA
ATOM      3  C   UNL d   1      -1.595 -19.885 -13.655  0.00  0.00     0.081 A 
ATOM      4  C   UNL d   1      -1.484 -19.512 -15.617  0.00  0.00     0.090 A 
ATOM      5  C   UNL d   1      -1.413 -20.631 -14.296  0.00  0.00     0.095 A 
ATOM      6  C   UNL d   1      -1.722 -18.953 -13.995  0.00  0.00     0.190 A 
ATOM      7  C   UNL d   1      -1.667 -18.767 -14.976  0.00  0.00     0.094 A 
ATOM      8  C   UNL d   1      -1.656 -20.064 -12.631  0.00  0.00     0.085 A 
ATOM      9  C   UNL d   1      -1.279 -21.607 -13.957  0.00  0.00     0.075 A 
ATOM     10  C   UNL d   1      -1.335 -21.809 -12.937  0.00  0.00     0.071 A 
ATOM     11  C   UNL d   1      -1.525 -21.032 -12.270  0.00  0.00     0.074 A 
ENDROOT
BRANCH   4  12
ATOM     12  C   UNL d   1      -1.429 -19.326 -16.598  0.00  0.00     0.001 A 
ATOM     13  C   UNL d   1      -0.658 -18.804 -16.965  0.00  0.00     0.054 A 
ATOM     14  C   UNL d   1      -0.603 -18.618 -17.946  0.00  0.00     0.102 A 
ATOM     15  C   UNL d   1      -1.317 -18.953 -18.560  0.00  0.00     0.099 A 
ATOM     16  C   UNL d   1      -2.087 -19.475 -18.193  0.00  0.00     0.040 A 
ATOM     17  C   UNL d   1      -2.143 -19.662 -17.212  0.00  0.00     0.017 A 
BRANCH  14  18
ATOM     18  O   UNL d   1       0.167 -18.096 -18.312  0.00  0.00    -0.353 OA
ATOM     19  C   UNL d   1       0.597 -17.383 -17.759  0.00  0.00     0.210 C 
ENDBRANCH  14  18
BRANCH  15  20
ATOM     20  O   UNL d   1      -1.262 -18.767 -19.540  0.00  0.00    -0.358 OA
ATOM     21  H   UNL d   1      -0.712 -18.654 -19.804  0.00  0.00     0.217 HD
ENDBRANCH  15  20
ENDBRANCH   4  12
BRANCH   8  22
ATOM     22  O   UNL d   1      -1.839 -19.311 -11.999  0.00  0.00    -0.360 OA
ATOM     23  H   UNL d   1      -1.739 -19.385 -11.392  0.00  0.00     0.217 HD
ENDBRANCH   8  22
BRANCH  10  24
ATOM     24  O   UNL d   1      -1.208 -22.742 -12.601  0.00  0.00    -0.361 OA
ATOM     25  H   UNL d   1      -1.691 -23.058 -12.375  0.00  0.00     0.217 HD
ENDBRANCH  10  24
TORSDOF 5
ENDMDL
