MODEL 1
REMARK VINA RESULT:    -7.238      0.000      0.000
REMARK INTER + INTRA:          -4.343
REMARK INTER:                  -9.588
REMARK INTRA:                   5.245
REMARK UNBOUND:                 5.010
REMARK  6 active torsions:
REMARK  status: ('A' for Active; 'I' for Inactive)
REMARK    1  A    between atoms: O_2  and  C_15 
REMARK    2  A    between atoms: O_3  and  C_17 
REMARK    3  A    between atoms: O_4  and  C_11 
REMARK    4  A    between atoms: O_6  and  C_22 
REMARK    5  A    between atoms: O_7  and  C_20 
REMARK    6  A    between atoms: C_10  and  C_13 
ROOT
ATOM      1  O   UNL d   1       1.988 -10.403 -35.968  0.00  0.00    -0.309 OA
ATOM      2  O   UNL d   1       0.564  -7.702 -35.652  0.00  0.00    -0.287 OA
ATOM      3  C   UNL d   1       1.696  -8.917 -35.039  0.00  0.00     0.084 A 
ATOM      4  C   UNL d   1       2.162  -9.796 -35.139  0.00  0.00     0.096 A 
ATOM      5  C   UNL d   1       1.320 -10.089 -36.703  0.00  0.00     0.090 A 
ATOM      6  C   UNL d   1       1.873  -8.345 -34.238  0.00  0.00     0.119 A 
ATOM      7  C   UNL d   1       1.024  -8.583 -35.762  0.00  0.00     0.190 A 
ATOM      8  C   UNL d   1       2.805 -10.104 -34.437  0.00  0.00     0.078 A 
ATOM      9  C   UNL d   1       2.516  -8.653 -33.536  0.00  0.00     0.136 A 
ATOM     10  C   UNL d   1       0.835  -9.173 -36.599  0.00  0.00     0.094 A 
ATOM     11  C   UNL d   1       2.981  -9.532 -33.636  0.00  0.00     0.107 A 
ENDROOT
BRANCH   5  12
ATOM     12  C   UNL d   1       1.146 -10.663 -37.502  0.00  0.00     0.001 A 
ATOM     13  C   UNL d   1       1.325 -10.309 -38.420  0.00  0.00     0.053 A 
ATOM     14  C   UNL d   1       1.151 -10.882 -39.221  0.00  0.00     0.099 A 
ATOM     15  C   UNL d   1       0.797 -11.810 -39.103  0.00  0.00     0.101 A 
ATOM     16  C   UNL d   1       0.617 -12.164 -38.185  0.00  0.00     0.040 A 
ATOM     17  C   UNL d   1       0.791 -11.590 -37.385  0.00  0.00     0.017 A 
BRANCH  14  18
ATOM     18  O   UNL d   1       1.331 -10.529 -40.139  0.00  0.00    -0.358 OA
ATOM     19  H   UNL d   1       1.671 -10.860 -40.537  0.00  0.00     0.217 HD
ENDBRANCH  14  18
BRANCH  15  20
ATOM     20  O   UNL d   1       0.622 -12.384 -39.902  0.00  0.00    -0.353 OA
ATOM     21  C   UNL d   1       0.959 -13.325 -39.926  0.00  0.00     0.210 C 
ENDBRANCH  15  20
ENDBRANCH   5  12
BRANCH   6  22
ATOM     22  O   UNL d   1       1.407  -7.466 -34.138  0.00  0.00    -0.357 OA
ATOM     23  H   UNL d   1       0.825  -7.446 -33.925  0.00  0.00     0.218 HD
ENDBRANCH   6  22
BRANCH  11  24
ATOM     24  O   UNL d   1       3.624  -9.839 -32.934  0.00  0.00    -0.353 OA
ATOM     25  C   UNL d   1       3.920 -10.794 -32.912  0.00  0.00     0.210 C 
ENDBRANCH  11  24
BRANCH   9  26
ATOM     26  O   UNL d   1       2.692  -8.081 -32.735  0.00  0.00    -0.351 OA
ATOM     27  C   UNL d   1       3.286  -7.280 -32.813  0.00  0.00     0.210 C 
ENDBRANCH   9  26
TORSDOF 6
ENDMDL
MODEL 2
REMARK VINA RESULT:    -7.190      1.220      2.479
REMARK INTER + INTRA:          -4.282
REMARK INTER:                  -9.688
REMARK INTRA:                   5.406
REMARK UNBOUND:                 5.010
REMARK  6 active torsions:
REMARK  status: ('A' for Active; 'I' for Inactive)
REMARK    1  A    between atoms: O_2  and  C_15 
REMARK    2  A    between atoms: O_3  and  C_17 
REMARK    3  A    between atoms: O_4  and  C_11 
REMARK    4  A    between atoms: O_6  and  C_22 
REMARK    5  A    between atoms: O_7  and  C_20 
REMARK    6  A    between atoms: C_10  and  C_13 
ROOT
ATOM      1  O   UNL d   1       1.296  -9.514 -35.927  0.00  0.00    -0.309 OA
ATOM      2  O   UNL d   1       3.403 -10.254 -33.822  0.00  0.00    -0.287 OA
ATOM      3  C   UNL d   1       2.148  -9.154 -34.410  0.00  0.00     0.084 A 
ATOM      4  C   UNL d   1       1.460  -8.910 -35.094  0.00  0.00     0.096 A 
ATOM      5  C   UNL d   1       1.856 -10.384 -36.049  0.00  0.00     0.090 A 
ATOM      6  C   UNL d   1       2.294  -8.565 -33.616  0.00  0.00     0.119 A 
ATOM      7  C   UNL d   1       2.718 -10.020 -34.512  0.00  0.00     0.190 A 
ATOM      8  C   UNL d   1       0.919  -8.076 -34.984  0.00  0.00     0.078 A 
ATOM      9  C   UNL d   1       1.753  -7.732 -33.505  0.00  0.00     0.136 A 
ATOM     10  C   UNL d   1       2.572 -10.638 -35.336  0.00  0.00     0.094 A 
ATOM     11  C   UNL d   1       1.066  -7.487 -34.189  0.00  0.00     0.107 A 
ENDROOT
BRANCH   5  12
ATOM     12  C   UNL d   1       1.708 -10.971 -36.845  0.00  0.00     0.001 A 
ATOM     13  C   UNL d   1       2.138 -11.872 -36.888  0.00  0.00     0.053 A 
ATOM     14  C   UNL d   1       1.990 -12.460 -37.683  0.00  0.00     0.099 A 
ATOM     15  C   UNL d   1       1.411 -12.146 -38.436  0.00  0.00     0.101 A 
ATOM     16  C   UNL d   1       0.980 -11.244 -38.393  0.00  0.00     0.040 A 
ATOM     17  C   UNL d   1       1.129 -10.657 -37.597  0.00  0.00     0.017 A 
BRANCH  14  18
ATOM     18  O   UNL d   1       2.420 -13.362 -37.727  0.00  0.00    -0.358 OA
ATOM     19  H   UNL d   1       2.161 -13.813 -38.064  0.00  0.00     0.217 HD
ENDBRANCH  14  18
BRANCH  15  20
ATOM     20  O   UNL d   1       1.262 -12.732 -39.231  0.00  0.00    -0.353 OA
ATOM     21  C   UNL d   1       0.600 -12.468 -39.932  0.00  0.00     0.210 C 
ENDBRANCH  15  20
ENDBRANCH   5  12
BRANCH   6  22
ATOM     22  O   UNL d   1       2.981  -8.810 -32.931  0.00  0.00    -0.357 OA
ATOM     23  H   UNL d   1       2.967  -9.369 -32.664  0.00  0.00     0.218 HD
ENDBRANCH   6  22
BRANCH  11  24
ATOM     24  O   UNL d   1       0.524  -6.653 -34.079  0.00  0.00    -0.353 OA
ATOM     25  C   UNL d   1      -0.187  -6.428 -34.744  0.00  0.00     0.210 C 
ENDBRANCH  11  24
BRANCH   9  26
ATOM     26  O   UNL d   1       1.899  -7.142 -32.711  0.00  0.00    -0.351 OA
ATOM     27  C   UNL d   1       2.679  -6.517 -32.688  0.00  0.00     0.210 C 
ENDBRANCH   9  26
TORSDOF 6
ENDMDL
MODEL 3
REMARK VINA RESULT:    -6.344     53.507     56.575
REMARK INTER + INTRA:          -3.188
REMARK INTER:                  -8.222
REMARK INTRA:                   5.034
REMARK UNBOUND:                 5.010
REMARK  6 active torsions:
REMARK  status: ('A' for Active; 'I' for Inactive)
REMARK    1  A    between atoms: O_2  and  C_15 
REMARK    2  A    between atoms: O_3  and  C_17 
REMARK    3  A    between atoms: O_4  and  C_11 
REMARK    4  A    between atoms: O_6  and  C_22 
REMARK    5  A    between atoms: O_7  and  C_20 
REMARK    6  A    between atoms: C_10  and  C_13 
ROOT
ATOM      1  O   UNL d   1       0.610 -19.335  19.512  0.00  0.00    -0.309 OA
ATOM      2  O   UNL d   1      -0.063 -17.067  21.467  0.00  0.00    -0.287 OA
ATOM      3  C   UNL d   1       0.797 -18.570  21.105  0.00  0.00     0.084 A 
ATOM      4  C   UNL d   1       1.018 -19.311  20.471  0.00  0.00     0.096 A 
ATOM      5  C   UNL d   1      -0.038 -18.577  19.211  0.00  0.00     0.090 A 
ATOM      6  C   UNL d   1       1.196 -18.560  22.021  0.00  0.00     0.119 A 
ATOM      7  C   UNL d   1       0.151 -17.802  20.825  0.00  0.00     0.190 A 
ATOM      8  C   UNL d   1       1.640 -20.042  20.753  0.00  0.00     0.078 A 
ATOM      9  C   UNL d   1       1.818 -19.291  22.304  0.00  0.00     0.136 A 
ATOM     10  C   UNL d   1      -0.269 -17.805  19.872  0.00  0.00     0.094 A 
ATOM     11  C   UNL d   1       2.039 -20.032  21.669  0.00  0.00     0.107 A 
ENDROOT
BRANCH   5  12
ATOM     12  C   UNL d   1      -0.436 -18.590  18.294  0.00  0.00     0.001 A 
ATOM     13  C   UNL d   1       0.081 -18.224  17.520  0.00  0.00     0.053 A 
ATOM     14  C   UNL d   1      -0.316 -18.236  16.602  0.00  0.00     0.099 A 
ATOM     15  C   UNL d   1      -1.231 -18.615  16.459  0.00  0.00     0.101 A 
ATOM     16  C   UNL d   1      -1.748 -18.981  17.233  0.00  0.00     0.040 A 
ATOM     17  C   UNL d   1      -1.350 -18.968  18.150  0.00  0.00     0.017 A 
BRANCH  14  18
ATOM     18  O   UNL d   1       0.200 -17.871  15.828  0.00  0.00    -0.358 OA
ATOM     19  H   UNL d   1       0.062 -18.050  15.251  0.00  0.00     0.217 HD
ENDBRANCH  14  18
BRANCH  15  20
ATOM     20  O   UNL d   1      -1.629 -18.628  15.542  0.00  0.00    -0.353 OA
ATOM     21  C   UNL d   1      -2.450 -19.168  15.360  0.00  0.00     0.210 C 
ENDBRANCH  15  20
ENDBRANCH   5  12
BRANCH   6  22
ATOM     22  O   UNL d   1       0.975 -17.820  22.656  0.00  0.00    -0.357 OA
ATOM     23  H   UNL d   1       0.686 -17.311  22.450  0.00  0.00     0.218 HD
ENDBRANCH   6  22
BRANCH  11  24
ATOM     24  O   UNL d   1       2.660 -20.763  21.952  0.00  0.00    -0.353 OA
ATOM     25  C   UNL d   1       3.182 -21.269  21.265  0.00  0.00     0.210 C 
ENDBRANCH  11  24
BRANCH   9  26
ATOM     26  O   UNL d   1       2.217 -19.282  23.220  0.00  0.00    -0.351 OA
ATOM     27  C   UNL d   1       1.694 -19.630  23.998  0.00  0.00     0.210 C 
ENDBRANCH   9  26
TORSDOF 6
ENDMDL
MODEL 4
REMARK VINA RESULT:    -6.282     53.532     56.606
REMARK INTER + INTRA:          -3.108
REMARK INTER:                  -8.175
REMARK INTRA:                   5.067
REMARK UNBOUND:                 5.010
REMARK  6 active torsions:
REMARK  status: ('A' for Active; 'I' for Inactive)
REMARK    1  A    between atoms: O_2  and  C_15 
REMARK    2  A    between atoms: O_3  and  C_17 
REMARK    3  A    between atoms: O_4  and  C_11 
REMARK    4  A    between atoms: O_6  and  C_22 
REMARK    5  A    between atoms: O_7  and  C_20 
REMARK    6  A    between atoms: C_10  and  C_13 
ROOT
ATOM      1  O   UNL d   1       0.652 -19.330  19.501  0.00  0.00    -0.309 OA
ATOM      2  O   UNL d   1      -0.071 -17.107  21.491  0.00  0.00    -0.287 OA
ATOM      3  C   UNL d   1       0.794 -18.605  21.116  0.00  0.00     0.084 A 
ATOM      4  C   UNL d   1       1.032 -19.331  20.471  0.00  0.00     0.096 A 
ATOM      5  C   UNL d   1       0.015 -18.562  19.200  0.00  0.00     0.090 A 
ATOM      6  C   UNL d   1       1.167 -18.619  22.044  0.00  0.00     0.119 A 
ATOM      7  C   UNL d   1       0.160 -17.828  20.837  0.00  0.00     0.190 A 
ATOM      8  C   UNL d   1       1.643 -20.071  20.753  0.00  0.00     0.078 A 
ATOM      9  C   UNL d   1       1.778 -19.359  22.326  0.00  0.00     0.136 A 
ATOM     10  C   UNL d   1      -0.232 -17.806  19.873  0.00  0.00     0.094 A 
ATOM     11  C   UNL d   1       2.015 -20.085  21.681  0.00  0.00     0.107 A 
ENDROOT
BRANCH   5  12
ATOM     12  C   UNL d   1      -0.356 -18.551  18.272  0.00  0.00     0.001 A 
ATOM     13  C   UNL d   1      -1.279 -18.895  18.098  0.00  0.00     0.053 A 
ATOM     14  C   UNL d   1      -1.651 -18.884  17.170  0.00  0.00     0.099 A 
ATOM     15  C   UNL d   1      -1.099 -18.529  16.415  0.00  0.00     0.101 A 
ATOM     16  C   UNL d   1      -0.176 -18.185  16.588  0.00  0.00     0.040 A 
ATOM     17  C   UNL d   1       0.195 -18.196  17.517  0.00  0.00     0.017 A 
BRANCH  14  18
ATOM     18  O   UNL d   1      -2.573 -19.227  16.995  0.00  0.00    -0.358 OA
ATOM     19  H   UNL d   1      -2.711 -19.820  17.111  0.00  0.00     0.217 HD
ENDBRANCH  14  18
BRANCH  15  20
ATOM     20  O   UNL d   1      -1.470 -18.518  15.487  0.00  0.00    -0.353 OA
ATOM     21  C   UNL d   1      -0.852 -18.533  14.700  0.00  0.00     0.210 C 
ENDBRANCH  15  20
ENDBRANCH   5  12
BRANCH   6  22
ATOM     22  O   UNL d   1       0.930 -17.893  22.690  0.00  0.00    -0.357 OA
ATOM     23  H   UNL d   1       0.335 -17.745  22.785  0.00  0.00     0.218 HD
ENDBRANCH   6  22
BRANCH  11  24
ATOM     24  O   UNL d   1       2.626 -20.825  21.963  0.00  0.00    -0.353 OA
ATOM     25  C   UNL d   1       3.172 -21.310  21.280  0.00  0.00     0.210 C 
ENDBRANCH  11  24
BRANCH   9  26
ATOM     26  O   UNL d   1       2.151 -19.373  23.254  0.00  0.00    -0.351 OA
ATOM     27  C   UNL d   1       1.591 -19.707  24.013  0.00  0.00     0.210 C 
ENDBRANCH   9  26
TORSDOF 6
ENDMDL
MODEL 5
REMARK VINA RESULT:    -6.265     51.773     53.272
REMARK INTER + INTRA:          -3.086
REMARK INTER:                  -8.310
REMARK INTRA:                   5.224
REMARK UNBOUND:                 5.010
REMARK  6 active torsions:
REMARK  status: ('A' for Active; 'I' for Inactive)
REMARK    1  A    between atoms: O_2  and  C_15 
REMARK    2  A    between atoms: O_3  and  C_17 
REMARK    3  A    between atoms: O_4  and  C_11 
REMARK    4  A    between atoms: O_6  and  C_22 
REMARK    5  A    between atoms: O_7  and  C_20 
REMARK    6  A    between atoms: C_10  and  C_13 
ROOT
ATOM      1  O   UNL d   1      -2.665 -19.075  16.681  0.00  0.00    -0.309 OA
ATOM      2  O   UNL d   1      -0.966 -18.446  14.204  0.00  0.00    -0.287 OA
ATOM      3  C   UNL d   1      -1.116 -18.588  15.961  0.00  0.00     0.084 A 
ATOM      4  C   UNL d   1      -1.666 -18.792  16.771  0.00  0.00     0.096 A 
ATOM      5  C   UNL d   1      -3.096 -19.146  15.736  0.00  0.00     0.090 A 
ATOM      6  C   UNL d   1      -0.158 -18.318  16.062  0.00  0.00     0.119 A 
ATOM      7  C   UNL d   1      -1.526 -18.653  15.006  0.00  0.00     0.190 A 
ATOM      8  C   UNL d   1      -1.259 -18.726  17.682  0.00  0.00     0.078 A 
ATOM      9  C   UNL d   1       0.249 -18.251  16.973  0.00  0.00     0.136 A 
ATOM     10  C   UNL d   1      -2.522 -18.934  14.892  0.00  0.00     0.094 A 
ATOM     11  C   UNL d   1      -0.302 -18.456  17.783  0.00  0.00     0.107 A 
ENDROOT
BRANCH   5  12
ATOM     12  C   UNL d   1      -4.053 -19.417  15.638  0.00  0.00     0.001 A 
ATOM     13  C   UNL d   1      -4.319 -20.065  14.924  0.00  0.00     0.053 A 
ATOM     14  C   UNL d   1      -5.277 -20.336  14.825  0.00  0.00     0.099 A 
ATOM     15  C   UNL d   1      -5.968 -19.959  15.442  0.00  0.00     0.101 A 
ATOM     16  C   UNL d   1      -5.702 -19.311  16.156  0.00  0.00     0.040 A 
ATOM     17  C   UNL d   1      -4.745 -19.040  16.254  0.00  0.00     0.017 A 
BRANCH  14  18
ATOM     18  O   UNL d   1      -5.543 -20.984  14.112  0.00  0.00    -0.358 OA
ATOM     19  H   UNL d   1      -5.773 -21.538  14.266  0.00  0.00     0.217 HD
ENDBRANCH  14  18
BRANCH  15  20
ATOM     20  O   UNL d   1      -6.926 -20.229  15.344  0.00  0.00    -0.353 OA
ATOM     21  C   UNL d   1      -7.577 -20.039  16.078  0.00  0.00     0.210 C 
ENDBRANCH  15  20
ENDBRANCH   5  12
BRANCH   6  22
ATOM     22  O   UNL d   1       0.392 -18.113  15.253  0.00  0.00    -0.357 OA
ATOM     23  H   UNL d   1       0.407 -17.537  15.026  0.00  0.00     0.218 HD
ENDBRANCH   6  22
BRANCH  11  24
ATOM     24  O   UNL d   1       0.106 -18.390  18.694  0.00  0.00    -0.353 OA
ATOM     25  C   UNL d   1      -0.413 -18.685  19.496  0.00  0.00     0.210 C 
ENDBRANCH  11  24
BRANCH   9  26
ATOM     26  O   UNL d   1       1.206 -17.981  17.075  0.00  0.00    -0.351 OA
ATOM     27  C   UNL d   1       1.463 -17.017  17.007  0.00  0.00     0.210 C 
ENDBRANCH   9  26
TORSDOF 6
ENDMDL
