MODEL 1
REMARK VINA RESULT:    -8.032      0.000      0.000
REMARK INTER + INTRA:          -7.957
REMARK INTER:                  -9.294
REMARK INTRA:                   1.337
REMARK UNBOUND:                 1.013
REMARK  3 active torsions:
REMARK  status: ('A' for Active; 'I' for Inactive)
REMARK    1  A    between atoms: O_2  and  C_10 
REMARK    2  A    between atoms: O_4  and  C_13 
REMARK    3  A    between atoms: C_7  and  C_9 
ROOT
ATOM      1  O   UNL d   1       1.521 -10.223 -37.384  0.00  0.00    -0.309 OA
ATOM      2  O   UNL d   1       2.035 -13.149 -37.807  0.00  0.00    -0.287 OA
ATOM      3  C   UNL d   1       1.480 -11.621 -38.406  0.00  0.00     0.081 A 
ATOM      4  C   UNL d   1       1.308 -10.646 -38.265  0.00  0.00     0.095 A 
ATOM      5  C   UNL d   1       1.905 -10.775 -36.644  0.00  0.00     0.090 A 
ATOM      6  C   UNL d   1       1.864 -12.174 -37.666  0.00  0.00     0.190 A 
ATOM      7  C   UNL d   1       1.263 -12.075 -39.318  0.00  0.00     0.085 A 
ATOM      8  C   UNL d   1       2.076 -11.751 -36.785  0.00  0.00     0.094 A 
ATOM      9  C   UNL d   1       0.908 -10.058 -39.027  0.00  0.00     0.075 A 
ATOM     10  C   UNL d   1       0.684 -10.492 -39.947  0.00  0.00     0.071 A 
ATOM     11  C   UNL d   1       0.863 -11.507 -40.093  0.00  0.00     0.074 A 
ENDROOT
BRANCH   5  12
ATOM     12  C   UNL d   1       2.117 -10.352 -35.764  0.00  0.00    -0.002 A 
ATOM     13  C   UNL d   1       1.619  -9.538 -35.467  0.00  0.00     0.014 A 
ATOM     14  C   UNL d   1       1.832  -9.115 -34.586  0.00  0.00     0.001 A 
ATOM     15  C   UNL d   1       2.543  -9.506 -34.002  0.00  0.00     0.000 A 
ATOM     16  C   UNL d   1       3.041 -10.321 -34.299  0.00  0.00     0.001 A 
ATOM     17  C   UNL d   1       2.829 -10.744 -35.180  0.00  0.00     0.014 A 
ENDBRANCH   5  12
BRANCH   7  18
ATOM     18  O   UNL d   1       1.439 -13.051 -39.447  0.00  0.00    -0.360 OA
ATOM     19  H   UNL d   1       1.840 -13.239 -39.880  0.00  0.00     0.217 HD
ENDBRANCH   7  18
BRANCH  10  20
ATOM     20  O   UNL d   1       0.300  -9.936 -40.684  0.00  0.00    -0.361 OA
ATOM     21  H   UNL d   1      -0.127 -10.177 -41.063  0.00  0.00     0.217 HD
ENDBRANCH  10  20
TORSDOF 3
ENDMDL
MODEL 2
REMARK VINA RESULT:    -7.905      1.825      5.042
REMARK INTER + INTRA:          -7.815
REMARK INTER:                  -8.862
REMARK INTRA:                   1.047
REMARK UNBOUND:                 1.013
REMARK  3 active torsions:
REMARK  status: ('A' for Active; 'I' for Inactive)
REMARK    1  A    between atoms: O_2  and  C_10 
REMARK    2  A    between atoms: O_4  and  C_13 
REMARK    3  A    between atoms: C_7  and  C_9 
ROOT
ATOM      1  O   UNL d   1       2.150 -10.965 -36.064  0.00  0.00    -0.309 OA
ATOM      2  O   UNL d   1       0.998  -8.334 -35.199  0.00  0.00    -0.287 OA
ATOM      3  C   UNL d   1       2.066  -9.669 -34.919  0.00  0.00     0.081 A 
ATOM      4  C   UNL d   1       2.450 -10.546 -35.207  0.00  0.00     0.095 A 
ATOM      5  C   UNL d   1       1.467 -10.508 -36.632  0.00  0.00     0.090 A 
ATOM      6  C   UNL d   1       1.382  -9.211 -35.487  0.00  0.00     0.190 A 
ATOM      7  C   UNL d   1       2.369  -9.220 -34.029  0.00  0.00     0.085 A 
ATOM      8  C   UNL d   1       1.082  -9.631 -36.344  0.00  0.00     0.094 A 
ATOM      9  C   UNL d   1       3.163 -11.035 -34.626  0.00  0.00     0.075 A 
ATOM     10  C   UNL d   1       3.480 -10.604 -33.732  0.00  0.00     0.071 A 
ATOM     11  C   UNL d   1       3.081  -9.691 -33.432  0.00  0.00     0.074 A 
ENDROOT
BRANCH   5  12
ATOM     12  C   UNL d   1       1.167 -10.927 -37.489  0.00  0.00    -0.002 A 
ATOM     13  C   UNL d   1       1.419 -10.513 -38.364  0.00  0.00     0.014 A 
ATOM     14  C   UNL d   1       1.119 -10.933 -39.221  0.00  0.00     0.001 A 
ATOM     15  C   UNL d   1       0.567 -11.767 -39.203  0.00  0.00     0.000 A 
ATOM     16  C   UNL d   1       0.315 -12.181 -38.328  0.00  0.00     0.001 A 
ATOM     17  C   UNL d   1       0.615 -11.761 -37.471  0.00  0.00     0.014 A 
ENDBRANCH   5  12
BRANCH   7  18
ATOM     18  O   UNL d   1       1.978  -8.343 -33.751  0.00  0.00    -0.360 OA
ATOM     19  H   UNL d   1       2.005  -7.856 -34.134  0.00  0.00     0.217 HD
ENDBRANCH   7  18
BRANCH  10  20
ATOM     20  O   UNL d   1       4.165 -11.064 -33.167  0.00  0.00    -0.361 OA
ATOM     21  H   UNL d   1       4.495 -10.740 -32.754  0.00  0.00     0.217 HD
ENDBRANCH  10  20
TORSDOF 3
ENDMDL
MODEL 3
REMARK VINA RESULT:    -7.833      0.893      2.241
REMARK INTER + INTRA:          -7.735
REMARK INTER:                  -9.125
REMARK INTRA:                   1.390
REMARK UNBOUND:                 1.013
REMARK  3 active torsions:
REMARK  status: ('A' for Active; 'I' for Inactive)
REMARK    1  A    between atoms: O_2  and  C_10 
REMARK    2  A    between atoms: O_4  and  C_13 
REMARK    3  A    between atoms: C_7  and  C_9 
ROOT
ATOM      1  O   UNL d   1       2.099 -11.145 -36.505  0.00  0.00    -0.309 OA
ATOM      2  O   UNL d   1       0.771  -8.775 -37.777  0.00  0.00    -0.287 OA
ATOM      3  C   UNL d   1       1.272 -10.432 -37.848  0.00  0.00     0.081 A 
ATOM      4  C   UNL d   1       1.714 -11.222 -37.424  0.00  0.00     0.095 A 
ATOM      5  C   UNL d   1       2.041 -10.279 -36.009  0.00  0.00     0.090 A 
ATOM      6  C   UNL d   1       1.214  -9.565 -37.353  0.00  0.00     0.190 A 
ATOM      7  C   UNL d   1       0.866 -10.497 -38.805  0.00  0.00     0.085 A 
ATOM      8  C   UNL d   1       1.599  -9.489 -36.433  0.00  0.00     0.094 A 
ATOM      9  C   UNL d   1       1.782 -12.131 -37.928  0.00  0.00     0.075 A 
ATOM     10  C   UNL d   1       1.384 -12.218 -38.887  0.00  0.00     0.071 A 
ATOM     11  C   UNL d   1       0.923 -11.396 -39.328  0.00  0.00     0.074 A 
ENDROOT
BRANCH   5  12
ATOM     12  C   UNL d   1       2.426 -10.202 -35.089  0.00  0.00    -0.002 A 
ATOM     13  C   UNL d   1       3.115 -10.858 -34.779  0.00  0.00     0.014 A 
ATOM     14  C   UNL d   1       3.499 -10.781 -33.859  0.00  0.00     0.001 A 
ATOM     15  C   UNL d   1       3.196 -10.049 -33.250  0.00  0.00     0.000 A 
ATOM     16  C   UNL d   1       2.508  -9.393 -33.560  0.00  0.00     0.001 A 
ATOM     17  C   UNL d   1       2.123  -9.470 -34.480  0.00  0.00     0.014 A 
ENDBRANCH   5  12
BRANCH   7  18
ATOM     18  O   UNL d   1       0.426  -9.700 -39.220  0.00  0.00    -0.360 OA
ATOM     19  H   UNL d   1      -0.117  -9.497 -39.000  0.00  0.00     0.217 HD
ENDBRANCH   7  18
BRANCH  10  20
ATOM     20  O   UNL d   1       1.444 -13.087 -39.379  0.00  0.00    -0.361 OA
ATOM     21  H   UNL d   1       1.997 -13.306 -39.553  0.00  0.00     0.217 HD
ENDBRANCH  10  20
TORSDOF 3
ENDMDL
MODEL 4
REMARK VINA RESULT:    -7.326      1.748      4.576
REMARK INTER + INTRA:          -7.169
REMARK INTER:                  -8.199
REMARK INTRA:                   1.030
REMARK UNBOUND:                 1.013
REMARK  3 active torsions:
REMARK  status: ('A' for Active; 'I' for Inactive)
REMARK    1  A    between atoms: O_2  and  C_10 
REMARK    2  A    between atoms: O_4  and  C_13 
REMARK    3  A    between atoms: C_7  and  C_9 
ROOT
ATOM      1  O   UNL d   1       0.986  -9.835 -36.633  0.00  0.00    -0.309 OA
ATOM      2  O   UNL d   1       3.156 -11.175 -35.054  0.00  0.00    -0.287 OA
ATOM      3  C   UNL d   1       2.035  -9.870 -35.255  0.00  0.00     0.081 A 
ATOM      4  C   UNL d   1       1.311  -9.424 -35.781  0.00  0.00     0.095 A 
ATOM      5  C   UNL d   1       1.384 -10.693 -36.958  0.00  0.00     0.090 A 
ATOM      6  C   UNL d   1       2.433 -10.728 -35.580  0.00  0.00     0.190 A 
ATOM      7  C   UNL d   1       2.384  -9.454 -34.367  0.00  0.00     0.085 A 
ATOM      8  C   UNL d   1       2.107 -11.139 -36.431  0.00  0.00     0.094 A 
ATOM      9  C   UNL d   1       0.887  -8.530 -35.456  0.00  0.00     0.075 A 
ATOM     10  C   UNL d   1       1.221  -8.095 -34.570  0.00  0.00     0.071 A 
ATOM     11  C   UNL d   1       1.974  -8.560 -34.022  0.00  0.00     0.074 A 
ENDROOT
BRANCH   5  12
ATOM     12  C   UNL d   1       1.058 -11.104 -37.809  0.00  0.00    -0.002 A 
ATOM     13  C   UNL d   1       1.376 -10.751 -38.689  0.00  0.00     0.014 A 
ATOM     14  C   UNL d   1       1.051 -11.162 -39.540  0.00  0.00     0.001 A 
ATOM     15  C   UNL d   1       0.407 -11.926 -39.512  0.00  0.00     0.000 A 
ATOM     16  C   UNL d   1       0.089 -12.280 -38.632  0.00  0.00     0.001 A 
ATOM     17  C   UNL d   1       0.414 -11.869 -37.781  0.00  0.00     0.014 A 
ENDBRANCH   5  12
BRANCH   7  18
ATOM     18  O   UNL d   1       3.108  -9.909 -33.848  0.00  0.00    -0.360 OA
ATOM     19  H   UNL d   1       2.963 -10.334 -33.421  0.00  0.00     0.217 HD
ENDBRANCH   7  18
BRANCH  10  20
ATOM     20  O   UNL d   1       0.821  -7.237 -34.248  0.00  0.00    -0.361 OA
ATOM     21  H   UNL d   1       0.342  -7.247 -33.854  0.00  0.00     0.217 HD
ENDBRANCH  10  20
TORSDOF 3
ENDMDL
MODEL 5
REMARK VINA RESULT:    -6.957      1.866      3.526
REMARK INTER + INTRA:          -6.757
REMARK INTER:                  -7.757
REMARK INTRA:                   0.999
REMARK UNBOUND:                 1.013
REMARK  3 active torsions:
REMARK  status: ('A' for Active; 'I' for Inactive)
REMARK    1  A    between atoms: O_2  and  C_10 
REMARK    2  A    between atoms: O_4  and  C_13 
REMARK    3  A    between atoms: C_7  and  C_9 
ROOT
ATOM      1  O   UNL d   1       1.225  -9.892 -39.417  0.00  0.00    -0.309 OA
ATOM      2  O   UNL d   1       1.563 -10.646 -36.533  0.00  0.00    -0.287 OA
ATOM      3  C   UNL d   1       1.390 -11.107 -38.194  0.00  0.00     0.081 A 
ATOM      4  C   UNL d   1       1.278 -10.855 -39.155  0.00  0.00     0.095 A 
ATOM      5  C   UNL d   1       1.286  -9.180 -38.717  0.00  0.00     0.090 A 
ATOM      6  C   UNL d   1       1.451 -10.395 -37.494  0.00  0.00     0.190 A 
ATOM      7  C   UNL d   1       1.446 -12.106 -37.906  0.00  0.00     0.085 A 
ATOM      8  C   UNL d   1       1.398  -9.431 -37.756  0.00  0.00     0.094 A 
ATOM      9  C   UNL d   1       1.213 -11.586 -39.895  0.00  0.00     0.075 A 
ATOM     10  C   UNL d   1       1.267 -12.592 -39.630  0.00  0.00     0.071 A 
ATOM     11  C   UNL d   1       1.384 -12.853 -38.629  0.00  0.00     0.074 A 
ENDROOT
BRANCH   5  12
ATOM     12  C   UNL d   1       1.234  -8.216 -38.979  0.00  0.00    -0.002 A 
ATOM     13  C   UNL d   1       0.344  -7.763 -39.046  0.00  0.00     0.014 A 
ATOM     14  C   UNL d   1       0.292  -6.800 -39.308  0.00  0.00     0.001 A 
ATOM     15  C   UNL d   1       1.129  -6.289 -39.503  0.00  0.00     0.000 A 
ATOM     16  C   UNL d   1       2.018  -6.741 -39.437  0.00  0.00     0.001 A 
ATOM     17  C   UNL d   1       2.071  -7.705 -39.175  0.00  0.00     0.014 A 
ENDBRANCH   5  12
BRANCH   7  18
ATOM     18  O   UNL d   1       1.559 -12.346 -36.942  0.00  0.00    -0.360 OA
ATOM     19  H   UNL d   1       1.541 -11.903 -36.508  0.00  0.00     0.217 HD
ENDBRANCH   7  18
BRANCH  10  20
ATOM     20  O   UNL d   1       1.206 -13.301 -40.332  0.00  0.00    -0.361 OA
ATOM     21  H   UNL d   1       0.657 -13.554 -40.470  0.00  0.00     0.217 HD
ENDBRANCH  10  20
TORSDOF 3
ENDMDL
