MODEL 1
REMARK VINA RESULT:     0.000      0.000      0.000
REMARK INTER + INTRA:           3.468
REMARK INTER:                   0.000
REMARK INTRA:                   3.468
REMARK UNBOUND:                 3.468
REMARK  6 active torsions:
REMARK  status: ('A' for Active; 'I' for Inactive)
REMARK    1  A    between atoms: O_2  and  C_7 
REMARK    2  A    between atoms: O_3  and  C_13 
REMARK    3  A    between atoms: O_4  and  C_18 
REMARK    4  A    between atoms: O_5  and  C_19 
REMARK    5  A    between atoms: O_6  and  C_21 
REMARK    6  A    between atoms: C_8  and  C_12 
ROOT
ATOM      1  O   UNL d   1      17.359  13.980 -33.921  0.00  0.00    -0.338 OA
ATOM      2  C   UNL d   1      18.279  14.534 -32.562  0.00  0.00     0.156 A 
ATOM      3  C   UNL d   1      18.038  14.601 -33.531  0.00  0.00     0.191 A 
ATOM      4  C   UNL d   1      17.842  13.845 -31.985  0.00  0.00     0.079 A 
ATOM      5  C   UNL d   1      17.163  13.224 -32.375  0.00  0.00     0.011 A 
ATOM      6  C   UNL d   1      16.921  13.291 -33.343  0.00  0.00     0.081 A 
ATOM      7  C   UNL d   1      16.715  12.511 -31.761  0.00  0.00     0.077 A 
ATOM      8  C   UNL d   1      16.216  12.650 -33.764  0.00  0.00     0.074 A 
ATOM      9  C   UNL d   1      16.007  11.860 -32.160  0.00  0.00     0.073 A 
ATOM     10  C   UNL d   1      15.756  11.930 -33.168  0.00  0.00     0.071 A 
ENDROOT
BRANCH   3  11
ATOM     11  C   UNL d   1      18.475  15.290 -34.108  0.00  0.00    -0.024 A 
ATOM     12  C   UNL d   1      18.075  16.204 -34.188  0.00  0.00     0.049 A 
ATOM     13  C   UNL d   1      18.513  16.892 -34.766  0.00  0.00     0.099 A 
ATOM     14  C   UNL d   1      19.350  16.668 -35.264  0.00  0.00     0.098 A 
ATOM     15  C   UNL d   1      19.750  15.755 -35.185  0.00  0.00     0.040 A 
ATOM     16  C   UNL d   1      19.312  15.066 -34.607  0.00  0.00     0.013 A 
BRANCH  13  17
ATOM     17  O   UNL d   1      18.113  17.806 -34.845  0.00  0.00    -0.358 OA
ATOM     18  H   UNL d   1      17.680  17.991 -34.441  0.00  0.00     0.217 HD
ENDBRANCH  13  17
BRANCH  14  19
ATOM     19  O   UNL d   1      19.787  17.357 -35.842  0.00  0.00    -0.358 OA
ATOM     20  H   UNL d   1      20.026  17.870 -35.587  0.00  0.00     0.217 HD
ENDBRANCH  14  19
ENDBRANCH   3  11
BRANCH   2  21
ATOM     21  O   UNL d   1      18.958  15.156 -32.172  0.00  0.00    -0.392 OA
ATOM     22  H   UNL d   1      19.225  15.023 -31.629  0.00  0.00     0.210 HD
ENDBRANCH   2  21
BRANCH   7  23
ATOM     23  O   UNL d   1      16.965  12.453 -30.794  0.00  0.00    -0.360 OA
ATOM     24  H   UNL d   1      17.465  12.752 -30.585  0.00  0.00     0.217 HD
ENDBRANCH   7  23
BRANCH  10  25
ATOM     25  O   UNL d   1      15.078  11.310 -33.561  0.00  0.00    -0.361 OA
ATOM     26  H   UNL d   1      14.520  11.253 -33.298  0.00  0.00     0.217 HD
ENDBRANCH  10  25
TORSDOF 6
ENDMDL
MODEL 2
REMARK VINA RESULT:     0.000     57.905     59.873
REMARK INTER + INTRA:           3.468
REMARK INTER:                   0.000
REMARK INTRA:                   3.468
REMARK UNBOUND:                 3.468
REMARK  6 active torsions:
REMARK  status: ('A' for Active; 'I' for Inactive)
REMARK    1  A    between atoms: O_2  and  C_7 
REMARK    2  A    between atoms: O_3  and  C_13 
REMARK    3  A    between atoms: O_4  and  C_18 
REMARK    4  A    between atoms: O_5  and  C_19 
REMARK    5  A    between atoms: O_6  and  C_21 
REMARK    6  A    between atoms: C_8  and  C_12 
ROOT
ATOM      1  O   UNL d   1       6.226 -41.157 -14.694  0.00  0.00    -0.338 OA
ATOM      2  C   UNL d   1       7.138 -41.289 -13.227  0.00  0.00     0.156 A 
ATOM      3  C   UNL d   1       6.388 -40.880 -13.747  0.00  0.00     0.191 A 
ATOM      4  C   UNL d   1       7.727 -41.974 -13.655  0.00  0.00     0.079 A 
ATOM      5  C   UNL d   1       7.566 -42.251 -14.603  0.00  0.00     0.011 A 
ATOM      6  C   UNL d   1       6.816 -41.842 -15.122  0.00  0.00     0.081 A 
ATOM      7  C   UNL d   1       8.187 -42.966 -15.035  0.00  0.00     0.077 A 
ATOM      8  C   UNL d   1       6.635 -42.120 -16.110  0.00  0.00     0.074 A 
ATOM      9  C   UNL d   1       8.026 -43.259 -16.022  0.00  0.00     0.073 A 
ATOM     10  C   UNL d   1       7.245 -42.833 -16.562  0.00  0.00     0.071 A 
ENDROOT
BRANCH   3  11
ATOM     11  C   UNL d   1       5.799 -40.195 -13.319  0.00  0.00    -0.024 A 
ATOM     12  C   UNL d   1       6.044 -39.226 -13.363  0.00  0.00     0.049 A 
ATOM     13  C   UNL d   1       5.455 -38.541 -12.935  0.00  0.00     0.099 A 
ATOM     14  C   UNL d   1       4.620 -38.824 -12.463  0.00  0.00     0.098 A 
ATOM     15  C   UNL d   1       4.375 -39.792 -12.419  0.00  0.00     0.040 A 
ATOM     16  C   UNL d   1       4.964 -40.478 -12.847  0.00  0.00     0.013 A 
BRANCH  13  17
ATOM     17  O   UNL d   1       5.701 -37.573 -12.980  0.00  0.00    -0.358 OA
ATOM     18  H   UNL d   1       5.289 -37.140 -12.812  0.00  0.00     0.217 HD
ENDBRANCH  13  17
BRANCH  14  19
ATOM     19  O   UNL d   1       4.031 -38.139 -12.035  0.00  0.00    -0.358 OA
ATOM     20  H   UNL d   1       4.106 -37.996 -11.436  0.00  0.00     0.217 HD
ENDBRANCH  14  19
ENDBRANCH   3  11
BRANCH   2  21
ATOM     21  O   UNL d   1       7.299 -41.013 -12.280  0.00  0.00    -0.392 OA
ATOM     22  H   UNL d   1       7.835 -41.155 -12.002  0.00  0.00     0.210 HD
ENDBRANCH   2  21
BRANCH   7  23
ATOM     23  O   UNL d   1       8.935 -43.368 -14.506  0.00  0.00    -0.360 OA
ATOM     24  H   UNL d   1       9.154 -43.074 -14.007  0.00  0.00     0.217 HD
ENDBRANCH   7  23
BRANCH  10  25
ATOM     25  O   UNL d   1       7.081 -43.107 -17.510  0.00  0.00    -0.361 OA
ATOM     26  H   UNL d   1       7.229 -43.679 -17.698  0.00  0.00     0.217 HD
ENDBRANCH  10  25
TORSDOF 6
ENDMDL
MODEL 3
REMARK VINA RESULT:     0.000     50.367     51.627
REMARK INTER + INTRA:           3.468
REMARK INTER:                   0.000
REMARK INTRA:                   3.468
REMARK UNBOUND:                 3.468
REMARK  6 active torsions:
REMARK  status: ('A' for Active; 'I' for Inactive)
REMARK    1  A    between atoms: O_2  and  C_7 
REMARK    2  A    between atoms: O_3  and  C_13 
REMARK    3  A    between atoms: O_4  and  C_18 
REMARK    4  A    between atoms: O_5  and  C_19 
REMARK    5  A    between atoms: O_6  and  C_21 
REMARK    6  A    between atoms: C_8  and  C_12 
ROOT
ATOM      1  O   UNL d   1      19.118 -36.957 -31.559  0.00  0.00    -0.338 OA
ATOM      2  C   UNL d   1      17.450 -37.317 -31.858  0.00  0.00     0.156 A 
ATOM      3  C   UNL d   1      18.184 -37.076 -31.222  0.00  0.00     0.191 A 
ATOM      4  C   UNL d   1      17.651 -37.438 -32.830  0.00  0.00     0.079 A 
ATOM      5  C   UNL d   1      18.585 -37.320 -33.166  0.00  0.00     0.011 A 
ATOM      6  C   UNL d   1      19.318 -37.079 -32.531  0.00  0.00     0.081 A 
ATOM      7  C   UNL d   1      18.779 -37.450 -34.181  0.00  0.00     0.077 A 
ATOM      8  C   UNL d   1      20.297 -36.952 -32.866  0.00  0.00     0.074 A 
ATOM      9  C   UNL d   1      19.750 -37.328 -34.539  0.00  0.00     0.073 A 
ATOM     10  C   UNL d   1      20.513 -37.077 -33.877  0.00  0.00     0.071 A 
ENDROOT
BRANCH   3  11
ATOM     11  C   UNL d   1      17.983 -36.954 -30.250  0.00  0.00    -0.024 A 
ATOM     12  C   UNL d   1      17.709 -36.057 -29.905  0.00  0.00     0.049 A 
ATOM     13  C   UNL d   1      17.508 -35.935 -28.933  0.00  0.00     0.099 A 
ATOM     14  C   UNL d   1      17.582 -36.711 -28.306  0.00  0.00     0.098 A 
ATOM     15  C   UNL d   1      17.856 -37.608 -28.652  0.00  0.00     0.040 A 
ATOM     16  C   UNL d   1      18.056 -37.730 -29.624  0.00  0.00     0.013 A 
BRANCH  13  17
ATOM     17  O   UNL d   1      17.235 -35.037 -28.588  0.00  0.00    -0.358 OA
ATOM     18  H   UNL d   1      17.264 -34.917 -27.980  0.00  0.00     0.217 HD
ENDBRANCH  13  17
BRANCH  14  19
ATOM     19  O   UNL d   1      17.381 -36.589 -27.334  0.00  0.00    -0.358 OA
ATOM     20  H   UNL d   1      17.017 -36.995 -27.040  0.00  0.00     0.217 HD
ENDBRANCH  14  19
ENDBRANCH   3  11
BRANCH   2  21
ATOM     21  O   UNL d   1      16.516 -37.435 -31.522  0.00  0.00    -0.392 OA
ATOM     22  H   UNL d   1      16.320 -37.995 -31.341  0.00  0.00     0.210 HD
ENDBRANCH   2  21
BRANCH   7  23
ATOM     23  O   UNL d   1      18.037 -37.690 -34.808  0.00  0.00    -0.360 OA
ATOM     24  H   UNL d   1      17.475 -37.823 -34.585  0.00  0.00     0.217 HD
ENDBRANCH   7  23
BRANCH  10  25
ATOM     25  O   UNL d   1      21.448 -36.958 -34.210  0.00  0.00    -0.361 OA
ATOM     26  H   UNL d   1      21.926 -37.007 -33.819  0.00  0.00     0.217 HD
ENDBRANCH  10  25
TORSDOF 6
ENDMDL
MODEL 4
REMARK VINA RESULT:     0.000     60.033     62.044
REMARK INTER + INTRA:           3.468
REMARK INTER:                   0.000
REMARK INTRA:                   3.468
REMARK UNBOUND:                 3.468
REMARK  6 active torsions:
REMARK  status: ('A' for Active; 'I' for Inactive)
REMARK    1  A    between atoms: O_2  and  C_7 
REMARK    2  A    between atoms: O_3  and  C_13 
REMARK    3  A    between atoms: O_4  and  C_18 
REMARK    4  A    between atoms: O_5  and  C_19 
REMARK    5  A    between atoms: O_6  and  C_21 
REMARK    6  A    between atoms: C_8  and  C_12 
ROOT
ATOM      1  O   UNL d   1       4.152  21.246  25.814  0.00  0.00    -0.338 OA
ATOM      2  C   UNL d   1       3.211  22.243  26.873  0.00  0.00     0.156 A 
ATOM      3  C   UNL d   1       3.905  21.536  26.739  0.00  0.00     0.191 A 
ATOM      4  C   UNL d   1       2.764  22.661  26.082  0.00  0.00     0.079 A 
ATOM      5  C   UNL d   1       3.010  22.371  25.157  0.00  0.00     0.011 A 
ATOM      6  C   UNL d   1       3.704  21.664  25.023  0.00  0.00     0.081 A 
ATOM      7  C   UNL d   1       2.536  22.815  24.343  0.00  0.00     0.077 A 
ATOM      8  C   UNL d   1       3.972  21.351  24.066  0.00  0.00     0.074 A 
ATOM      9  C   UNL d   1       2.788  22.518  23.377  0.00  0.00     0.073 A 
ATOM     10  C   UNL d   1       3.511  21.782  23.238  0.00  0.00     0.071 A 
ENDROOT
BRANCH   3  11
ATOM     11  C   UNL d   1       4.352  21.118  27.530  0.00  0.00    -0.024 A 
ATOM     12  C   UNL d   1       5.181  21.528  27.910  0.00  0.00     0.049 A 
ATOM     13  C   UNL d   1       5.629  21.111  28.701  0.00  0.00     0.099 A 
ATOM     14  C   UNL d   1       5.247  20.283  29.112  0.00  0.00     0.098 A 
ATOM     15  C   UNL d   1       4.418  19.873  28.732  0.00  0.00     0.040 A 
ATOM     16  C   UNL d   1       3.970  20.291  27.941  0.00  0.00     0.013 A 
BRANCH  13  17
ATOM     17  O   UNL d   1       6.458  21.521  29.080  0.00  0.00    -0.358 OA
ATOM     18  H   UNL d   1       6.438  22.090  29.324  0.00  0.00     0.217 HD
ENDBRANCH  13  17
BRANCH  14  19
ATOM     19  O   UNL d   1       5.694  19.865  29.903  0.00  0.00    -0.358 OA
ATOM     20  H   UNL d   1       5.768  19.250  29.928  0.00  0.00     0.217 HD
ENDBRANCH  14  19
ENDBRANCH   3  11
BRANCH   2  21
ATOM     21  O   UNL d   1       2.964  22.533  27.797  0.00  0.00    -0.392 OA
ATOM     22  H   UNL d   1       2.509  22.946  27.882  0.00  0.00     0.210 HD
ENDBRANCH   2  21
BRANCH   7  23
ATOM     23  O   UNL d   1       1.844  23.521  24.489  0.00  0.00    -0.360 OA
ATOM     24  H   UNL d   1       1.882  23.895  24.981  0.00  0.00     0.217 HD
ENDBRANCH   7  23
BRANCH  10  25
ATOM     25  O   UNL d   1       3.760  21.489  22.314  0.00  0.00    -0.361 OA
ATOM     26  H   UNL d   1       3.567  21.814  21.823  0.00  0.00     0.217 HD
ENDBRANCH  10  25
TORSDOF 6
ENDMDL
MODEL 5
REMARK VINA RESULT:     0.000     57.284     59.077
REMARK INTER + INTRA:           3.468
REMARK INTER:                   0.000
REMARK INTRA:                   3.468
REMARK UNBOUND:                 3.468
REMARK  6 active torsions:
REMARK  status: ('A' for Active; 'I' for Inactive)
REMARK    1  A    between atoms: O_2  and  C_7 
REMARK    2  A    between atoms: O_3  and  C_13 
REMARK    3  A    between atoms: O_4  and  C_18 
REMARK    4  A    between atoms: O_5  and  C_19 
REMARK    5  A    between atoms: O_6  and  C_21 
REMARK    6  A    between atoms: C_8  and  C_12 
ROOT
ATOM      1  O   UNL d   1      23.983  24.762  24.103  0.00  0.00    -0.338 OA
ATOM      2  C   UNL d   1      24.818  23.305  23.681  0.00  0.00     0.156 A 
ATOM      3  C   UNL d   1      24.197  23.803  24.286  0.00  0.00     0.191 A 
ATOM      4  C   UNL d   1      25.224  23.766  22.892  0.00  0.00     0.079 A 
ATOM      5  C   UNL d   1      25.010  24.725  22.709  0.00  0.00     0.011 A 
ATOM      6  C   UNL d   1      24.389  25.223  23.314  0.00  0.00     0.081 A 
ATOM      7  C   UNL d   1      25.441  25.192  21.884  0.00  0.00     0.077 A 
ATOM      8  C   UNL d   1      24.156  26.223  23.136  0.00  0.00     0.074 A 
ATOM      9  C   UNL d   1      25.222  26.191  21.686  0.00  0.00     0.073 A 
ATOM     10  C   UNL d   1      24.576  26.710  22.316  0.00  0.00     0.071 A 
ENDROOT
BRANCH   3  11
ATOM     11  C   UNL d   1      23.790  23.342  25.075  0.00  0.00    -0.024 A 
ATOM     12  C   UNL d   1      24.268  23.340  25.954  0.00  0.00     0.049 A 
ATOM     13  C   UNL d   1      23.861  22.879  26.743  0.00  0.00     0.099 A 
ATOM     14  C   UNL d   1      22.977  22.420  26.653  0.00  0.00     0.098 A 
ATOM     15  C   UNL d   1      22.500  22.422  25.774  0.00  0.00     0.040 A 
ATOM     16  C   UNL d   1      22.906  22.883  24.985  0.00  0.00     0.013 A 
BRANCH  13  17
ATOM     17  O   UNL d   1      24.338  22.877  27.622  0.00  0.00    -0.358 OA
ATOM     18  H   UNL d   1      24.816  23.261  27.716  0.00  0.00     0.217 HD
ENDBRANCH  13  17
BRANCH  14  19
ATOM     19  O   UNL d   1      22.571  21.959  27.442  0.00  0.00    -0.358 OA
ATOM     20  H   UNL d   1      22.454  22.278  27.961  0.00  0.00     0.217 HD
ENDBRANCH  14  19
ENDBRANCH   3  11
BRANCH   2  21
ATOM     21  O   UNL d   1      25.032  22.345  23.865  0.00  0.00    -0.392 OA
ATOM     22  H   UNL d   1      25.439  22.045  23.507  0.00  0.00     0.210 HD
ENDBRANCH   2  21
BRANCH   7  23
ATOM     23  O   UNL d   1      26.060  24.684  21.285  0.00  0.00    -0.360 OA
ATOM     24  H   UNL d   1      25.852  24.453  20.749  0.00  0.00     0.217 HD
ENDBRANCH   7  23
BRANCH  10  25
ATOM     25  O   UNL d   1      24.360  27.669  22.136  0.00  0.00    -0.361 OA
ATOM     26  H   UNL d   1      24.810  28.095  22.137  0.00  0.00     0.217 HD
ENDBRANCH  10  25
TORSDOF 6
ENDMDL
