MODEL 1
REMARK VINA RESULT:    -9.984      0.000      0.000
REMARK INTER + INTRA:          -8.494
REMARK INTER:                 -12.008
REMARK INTRA:                   3.514
REMARK UNBOUND:                 3.533
REMARK  6 active torsions:
REMARK  status: ('A' for Active; 'I' for Inactive)
REMARK    1  A    between atoms: O_2  and  C_7 
REMARK    2  A    between atoms: O_3  and  C_13 
REMARK    3  A    between atoms: O_4  and  C_18 
REMARK    4  A    between atoms: O_5  and  C_19 
REMARK    5  A    between atoms: O_6  and  C_21 
REMARK    6  A    between atoms: C_8  and  C_12 
ROOT
ATOM      1  O   UNL d   1      22.291  -1.912 -26.546  0.00  0.00    -0.338 OA
ATOM      2  C   UNL d   1      21.579  -0.486 -25.868  0.00  0.00     0.156 A 
ATOM      3  C   UNL d   1      21.624  -1.168 -26.598  0.00  0.00     0.191 A 
ATOM      4  C   UNL d   1      22.200  -0.547 -25.087  0.00  0.00     0.079 A 
ATOM      5  C   UNL d   1      22.867  -1.291 -25.035  0.00  0.00     0.011 A 
ATOM      6  C   UNL d   1      22.913  -1.973 -25.765  0.00  0.00     0.081 A 
ATOM      7  C   UNL d   1      23.508  -1.342 -24.216  0.00  0.00     0.077 A 
ATOM      8  C   UNL d   1      23.602  -2.753 -25.726  0.00  0.00     0.074 A 
ATOM      9  C   UNL d   1      24.205  -2.113 -24.156  0.00  0.00     0.073 A 
ATOM     10  C   UNL d   1      24.252  -2.824 -24.915  0.00  0.00     0.071 A 
ENDROOT
BRANCH   3  11
ATOM     11  C   UNL d   1      21.003  -1.107 -27.379  0.00  0.00    -0.024 A 
ATOM     12  C   UNL d   1      20.056  -1.417 -27.290  0.00  0.00     0.049 A 
ATOM     13  C   UNL d   1      19.435  -1.355 -28.071  0.00  0.00     0.099 A 
ATOM     14  C   UNL d   1      19.760  -0.984 -28.941  0.00  0.00     0.098 A 
ATOM     15  C   UNL d   1      20.707  -0.674 -29.030  0.00  0.00     0.040 A 
ATOM     16  C   UNL d   1      21.328  -0.736 -28.248  0.00  0.00     0.013 A 
BRANCH  13  17
ATOM     17  O   UNL d   1      18.488  -1.665 -27.983  0.00  0.00    -0.358 OA
ATOM     18  H   UNL d   1      18.062  -1.479 -28.392  0.00  0.00     0.217 HD
ENDBRANCH  13  17
BRANCH  14  19
ATOM     19  O   UNL d   1      19.139  -0.923 -29.722  0.00  0.00    -0.358 OA
ATOM     20  H   UNL d   1      19.362  -0.791 -30.286  0.00  0.00     0.217 HD
ENDBRANCH  14  19
ENDBRANCH   3  11
BRANCH   2  21
ATOM     21  O   UNL d   1      20.912   0.257 -25.919  0.00  0.00    -0.392 OA
ATOM     22  H   UNL d   1      20.434   0.273 -25.524  0.00  0.00     0.210 HD
ENDBRANCH   2  21
BRANCH   7  23
ATOM     23  O   UNL d   1      23.453  -0.654 -23.492  0.00  0.00    -0.360 OA
ATOM     24  H   UNL d   1      22.919  -0.561 -23.193  0.00  0.00     0.217 HD
ENDBRANCH   7  23
BRANCH  10  25
ATOM     25  O   UNL d   1      24.918  -3.568 -24.867  0.00  0.00    -0.361 OA
ATOM     26  H   UNL d   1      25.297  -3.676 -25.344  0.00  0.00     0.217 HD
ENDBRANCH  10  25
TORSDOF 6
ENDMDL
MODEL 2
REMARK VINA RESULT:    -9.977     43.250     45.143
REMARK INTER + INTRA:          -8.485
REMARK INTER:                 -12.333
REMARK INTRA:                   3.848
REMARK UNBOUND:                 3.533
REMARK  6 active torsions:
REMARK  status: ('A' for Active; 'I' for Inactive)
REMARK    1  A    between atoms: O_2  and  C_7 
REMARK    2  A    between atoms: O_3  and  C_13 
REMARK    3  A    between atoms: O_4  and  C_18 
REMARK    4  A    between atoms: O_5  and  C_19 
REMARK    5  A    between atoms: O_6  and  C_21 
REMARK    6  A    between atoms: C_8  and  C_12 
ROOT
ATOM      1  O   UNL d   1       7.926  -3.901  15.702  0.00  0.00    -0.338 OA
ATOM      2  C   UNL d   1       7.732  -5.476  16.395  0.00  0.00     0.156 A 
ATOM      3  C   UNL d   1       8.037  -4.527  16.474  0.00  0.00     0.191 A 
ATOM      4  C   UNL d   1       7.317  -5.800  15.545  0.00  0.00     0.079 A 
ATOM      5  C   UNL d   1       7.206  -5.174  14.773  0.00  0.00     0.011 A 
ATOM      6  C   UNL d   1       7.511  -4.224  14.852  0.00  0.00     0.081 A 
ATOM      7  C   UNL d   1       6.772  -5.524  13.894  0.00  0.00     0.077 A 
ATOM      8  C   UNL d   1       7.403  -3.560  14.056  0.00  0.00     0.074 A 
ATOM      9  C   UNL d   1       6.653  -4.878  13.086  0.00  0.00     0.073 A 
ATOM     10  C   UNL d   1       6.971  -3.890  13.167  0.00  0.00     0.071 A 
ENDROOT
BRANCH   3  11
ATOM     11  C   UNL d   1       8.452  -4.204  17.324  0.00  0.00    -0.024 A 
ATOM     12  C   UNL d   1       9.298  -4.621  17.657  0.00  0.00     0.049 A 
ATOM     13  C   UNL d   1       9.714  -4.297  18.507  0.00  0.00     0.099 A 
ATOM     14  C   UNL d   1       9.283  -3.558  19.024  0.00  0.00     0.098 A 
ATOM     15  C   UNL d   1       8.438  -3.141  18.691  0.00  0.00     0.040 A 
ATOM     16  C   UNL d   1       8.022  -3.464  17.841  0.00  0.00     0.013 A 
BRANCH  13  17
ATOM     17  O   UNL d   1      10.560  -4.714  18.840  0.00  0.00    -0.358 OA
ATOM     18  H   UNL d   1      11.046  -4.775  18.460  0.00  0.00     0.217 HD
ENDBRANCH  13  17
BRANCH  14  19
ATOM     19  O   UNL d   1       9.699  -3.234  19.875  0.00  0.00    -0.358 OA
ATOM     20  H   UNL d   1       9.796  -3.630  20.342  0.00  0.00     0.217 HD
ENDBRANCH  14  19
ENDBRANCH   3  11
BRANCH   2  21
ATOM     21  O   UNL d   1       7.843  -6.102  17.167  0.00  0.00    -0.392 OA
ATOM     22  H   UNL d   1       7.940  -6.706  17.065  0.00  0.00     0.210 HD
ENDBRANCH   2  21
BRANCH   7  23
ATOM     23  O   UNL d   1       6.470  -6.475  13.827  0.00  0.00    -0.360 OA
ATOM     24  H   UNL d   1       6.889  -6.930  13.786  0.00  0.00     0.217 HD
ENDBRANCH   7  23
BRANCH  10  25
ATOM     25  O   UNL d   1       6.862  -3.261  12.397  0.00  0.00    -0.361 OA
ATOM     26  H   UNL d   1       6.604  -2.705  12.485  0.00  0.00     0.217 HD
ENDBRANCH  10  25
TORSDOF 6
ENDMDL
MODEL 3
REMARK VINA RESULT:    -9.976     43.797     45.407
REMARK INTER + INTRA:          -8.483
REMARK INTER:                 -11.982
REMARK INTRA:                   3.498
REMARK UNBOUND:                 3.533
REMARK  6 active torsions:
REMARK  status: ('A' for Active; 'I' for Inactive)
REMARK    1  A    between atoms: O_2  and  C_7 
REMARK    2  A    between atoms: O_3  and  C_13 
REMARK    3  A    between atoms: O_4  and  C_18 
REMARK    4  A    between atoms: O_5  and  C_19 
REMARK    5  A    between atoms: O_6  and  C_21 
REMARK    6  A    between atoms: C_8  and  C_12 
ROOT
ATOM      1  O   UNL d   1       7.227  -3.125  16.863  0.00  0.00    -0.338 OA
ATOM      2  C   UNL d   1       7.346  -4.570  15.916  0.00  0.00     0.156 A 
ATOM      3  C   UNL d   1       6.927  -3.678  16.085  0.00  0.00     0.191 A 
ATOM      4  C   UNL d   1       8.065  -4.909  16.523  0.00  0.00     0.079 A 
ATOM      5  C   UNL d   1       8.364  -4.356  17.301  0.00  0.00     0.011 A 
ATOM      6  C   UNL d   1       7.945  -3.464  17.471  0.00  0.00     0.081 A 
ATOM      7  C   UNL d   1       9.113  -4.722  17.925  0.00  0.00     0.077 A 
ATOM      8  C   UNL d   1       8.246  -2.876  18.276  0.00  0.00     0.074 A 
ATOM      9  C   UNL d   1       9.430  -4.151  18.737  0.00  0.00     0.073 A 
ATOM     10  C   UNL d   1       8.994  -3.223  18.914  0.00  0.00     0.071 A 
ENDROOT
BRANCH   3  11
ATOM     11  C   UNL d   1       6.209  -3.340  15.478  0.00  0.00    -0.024 A 
ATOM     12  C   UNL d   1       5.248  -3.451  15.729  0.00  0.00     0.049 A 
ATOM     13  C   UNL d   1       4.529  -3.112  15.122  0.00  0.00     0.099 A 
ATOM     14  C   UNL d   1       4.773  -2.662  14.263  0.00  0.00     0.098 A 
ATOM     15  C   UNL d   1       5.734  -2.551  14.011  0.00  0.00     0.040 A 
ATOM     16  C   UNL d   1       6.452  -2.890  14.619  0.00  0.00     0.013 A 
BRANCH  13  17
ATOM     17  O   UNL d   1       3.568  -3.223  15.374  0.00  0.00    -0.358 OA
ATOM     18  H   UNL d   1       3.320  -3.790  15.406  0.00  0.00     0.217 HD
ENDBRANCH  13  17
BRANCH  14  19
ATOM     19  O   UNL d   1       4.054  -2.323  13.655  0.00  0.00    -0.358 OA
ATOM     20  H   UNL d   1       3.912  -1.720  13.649  0.00  0.00     0.217 HD
ENDBRANCH  14  19
ENDBRANCH   3  11
BRANCH   2  21
ATOM     21  O   UNL d   1       7.047  -5.124  15.138  0.00  0.00    -0.392 OA
ATOM     22  H   UNL d   1       6.490  -5.396  15.148  0.00  0.00     0.210 HD
ENDBRANCH   2  21
BRANCH   7  23
ATOM     23  O   UNL d   1       9.525  -5.615  17.746  0.00  0.00    -0.360 OA
ATOM     24  H   UNL d   1      10.061  -5.769  18.016  0.00  0.00     0.217 HD
ENDBRANCH   7  23
BRANCH  10  25
ATOM     25  O   UNL d   1       9.291  -2.667  19.690  0.00  0.00    -0.361 OA
ATOM     26  H   UNL d   1       9.209  -2.053  19.681  0.00  0.00     0.217 HD
ENDBRANCH  10  25
TORSDOF 6
ENDMDL
MODEL 4
REMARK VINA RESULT:    -9.825     18.621     19.547
REMARK INTER + INTRA:          -8.302
REMARK INTER:                 -11.766
REMARK INTRA:                   3.464
REMARK UNBOUND:                 3.533
REMARK  6 active torsions:
REMARK  status: ('A' for Active; 'I' for Inactive)
REMARK    1  A    between atoms: O_2  and  C_7 
REMARK    2  A    between atoms: O_3  and  C_13 
REMARK    3  A    between atoms: O_4  and  C_18 
REMARK    4  A    between atoms: O_5  and  C_19 
REMARK    5  A    between atoms: O_6  and  C_21 
REMARK    6  A    between atoms: C_8  and  C_12 
ROOT
ATOM      1  O   UNL d   1      24.584   7.015 -43.317  0.00  0.00    -0.338 OA
ATOM      2  C   UNL d   1      25.680   8.156 -42.614  0.00  0.00     0.156 A 
ATOM      3  C   UNL d   1      25.518   7.337 -43.163  0.00  0.00     0.191 A 
ATOM      4  C   UNL d   1      24.908   8.654 -42.219  0.00  0.00     0.079 A 
ATOM      5  C   UNL d   1      23.974   8.333 -42.373  0.00  0.00     0.011 A 
ATOM      6  C   UNL d   1      23.812   7.513 -42.922  0.00  0.00     0.081 A 
ATOM      7  C   UNL d   1      23.180   8.862 -41.955  0.00  0.00     0.077 A 
ATOM      8  C   UNL d   1      22.844   7.165 -43.092  0.00  0.00     0.074 A 
ATOM      9  C   UNL d   1      22.204   8.532 -42.112  0.00  0.00     0.073 A 
ATOM     10  C   UNL d   1      22.035   7.679 -42.683  0.00  0.00     0.071 A 
ENDROOT
BRANCH   3  11
ATOM     11  C   UNL d   1      26.290   6.838 -43.558  0.00  0.00    -0.024 A 
ATOM     12  C   UNL d   1      26.710   6.085 -43.052  0.00  0.00     0.049 A 
ATOM     13  C   UNL d   1      27.482   5.587 -43.447  0.00  0.00     0.099 A 
ATOM     14  C   UNL d   1      27.833   5.842 -44.348  0.00  0.00     0.098 A 
ATOM     15  C   UNL d   1      27.413   6.595 -44.854  0.00  0.00     0.040 A 
ATOM     16  C   UNL d   1      26.641   7.093 -44.459  0.00  0.00     0.013 A 
BRANCH  13  17
ATOM     17  O   UNL d   1      27.903   4.834 -42.942  0.00  0.00    -0.358 OA
ATOM     18  H   UNL d   1      27.606   4.292 -42.889  0.00  0.00     0.217 HD
ENDBRANCH  13  17
BRANCH  14  19
ATOM     19  O   UNL d   1      28.605   5.344 -44.743  0.00  0.00    -0.358 OA
ATOM     20  H   UNL d   1      29.096   5.203 -44.391  0.00  0.00     0.217 HD
ENDBRANCH  14  19
ENDBRANCH   3  11
BRANCH   2  21
ATOM     21  O   UNL d   1      26.614   8.478 -42.460  0.00  0.00    -0.392 OA
ATOM     22  H   UNL d   1      27.076   8.274 -42.820  0.00  0.00     0.210 HD
ENDBRANCH   2  21
BRANCH   7  23
ATOM     23  O   UNL d   1      23.354   9.680 -41.408  0.00  0.00    -0.360 OA
ATOM     24  H   UNL d   1      23.677  10.151 -41.649  0.00  0.00     0.217 HD
ENDBRANCH   7  23
BRANCH  10  25
ATOM     25  O   UNL d   1      21.103   7.355 -42.839  0.00  0.00    -0.361 OA
ATOM     26  H   UNL d   1      20.631   7.604 -42.525  0.00  0.00     0.217 HD
ENDBRANCH  10  25
TORSDOF 6
ENDMDL
MODEL 5
REMARK VINA RESULT:    -9.775     28.663     30.325
REMARK INTER + INTRA:          -8.242
REMARK INTER:                 -11.703
REMARK INTRA:                   3.461
REMARK UNBOUND:                 3.533
REMARK  6 active torsions:
REMARK  status: ('A' for Active; 'I' for Inactive)
REMARK    1  A    between atoms: O_2  and  C_7 
REMARK    2  A    between atoms: O_3  and  C_13 
REMARK    3  A    between atoms: O_4  and  C_18 
REMARK    4  A    between atoms: O_5  and  C_19 
REMARK    5  A    between atoms: O_6  and  C_21 
REMARK    6  A    between atoms: C_8  and  C_12 
ROOT
ATOM      1  O   UNL d   1       9.669   5.426   0.125  0.00  0.00    -0.338 OA
ATOM      2  C   UNL d   1      10.765   6.557   0.845  0.00  0.00     0.156 A 
ATOM      3  C   UNL d   1      10.603   5.751   0.276  0.00  0.00     0.191 A 
ATOM      4  C   UNL d   1       9.994   7.038   1.262  0.00  0.00     0.079 A 
ATOM      5  C   UNL d   1       9.061   6.713   1.111  0.00  0.00     0.011 A 
ATOM      6  C   UNL d   1       8.898   5.907   0.542  0.00  0.00     0.081 A 
ATOM      7  C   UNL d   1       8.268   7.224   1.551  0.00  0.00     0.077 A 
ATOM      8  C   UNL d   1       7.932   5.556   0.375  0.00  0.00     0.074 A 
ATOM      9  C   UNL d   1       7.293   6.891   1.398  0.00  0.00     0.073 A 
ATOM     10  C   UNL d   1       7.124   6.052   0.806  0.00  0.00     0.071 A 
ENDROOT
BRANCH   3  11
ATOM     11  C   UNL d   1      11.374   5.270  -0.141  0.00  0.00    -0.024 A 
ATOM     12  C   UNL d   1      11.825   4.526   0.352  0.00  0.00     0.049 A 
ATOM     13  C   UNL d   1      12.596   4.045  -0.065  0.00  0.00     0.099 A 
ATOM     14  C   UNL d   1      12.916   4.308  -0.975  0.00  0.00     0.098 A 
ATOM     15  C   UNL d   1      12.465   5.052  -1.468  0.00  0.00     0.040 A 
ATOM     16  C   UNL d   1      11.694   5.533  -1.051  0.00  0.00     0.013 A 
BRANCH  13  17
ATOM     17  O   UNL d   1      13.047   3.301   0.428  0.00  0.00    -0.358 OA
ATOM     18  H   UNL d   1      13.291   2.825   0.115  0.00  0.00     0.217 HD
ENDBRANCH  13  17
BRANCH  14  19
ATOM     19  O   UNL d   1      13.687   3.827  -1.392  0.00  0.00    -0.358 OA
ATOM     20  H   UNL d   1      14.057   3.472  -1.043  0.00  0.00     0.217 HD
ENDBRANCH  14  19
ENDBRANCH   3  11
BRANCH   2  21
ATOM     21  O   UNL d   1      11.698   6.883   0.997  0.00  0.00    -0.392 OA
ATOM     22  H   UNL d   1      12.079   6.967   0.515  0.00  0.00     0.210 HD
ENDBRANCH   2  21
BRANCH   7  23
ATOM     23  O   UNL d   1       8.442   8.029   2.118  0.00  0.00    -0.360 OA
ATOM     24  H   UNL d   1       8.952   8.369   2.025  0.00  0.00     0.217 HD
ENDBRANCH   7  23
BRANCH  10  25
ATOM     25  O   UNL d   1       6.192   5.724   0.652  0.00  0.00    -0.361 OA
ATOM     26  H   UNL d   1       5.709   6.060   0.846  0.00  0.00     0.217 HD
ENDBRANCH  10  25
TORSDOF 6
ENDMDL
