MODEL 1
REMARK VINA RESULT:   -11.073      0.000      0.000
REMARK INTER + INTRA:         -11.295
REMARK INTER:                 -13.130
REMARK INTRA:                   1.835
REMARK UNBOUND:                 2.043
REMARK  5 active torsions:
REMARK  status: ('A' for Active; 'I' for Inactive)
REMARK    1  A    between atoms: O_2  and  C_13 
REMARK    2  A    between atoms: O_3  and  C_19 
REMARK    3  A    between atoms: O_5  and  C_17 
REMARK    4  A    between atoms: O_6  and  C_21 
REMARK    5  A    between atoms: C_8  and  C_10 
ROOT
ATOM      1  O   UNL d   1       5.947   5.365  18.165  0.00  0.00    -0.309 OA
ATOM      2  O   UNL d   1       3.310   6.776  17.936  0.00  0.00    -0.287 OA
ATOM      3  C   UNL d   1       4.302   5.560  18.668  0.00  0.00     0.081 A 
ATOM      4  C   UNL d   1       5.835   6.111  17.509  0.00  0.00     0.090 A 
ATOM      5  C   UNL d   1       5.181   5.089  18.745  0.00  0.00     0.095 A 
ATOM      6  C   UNL d   1       4.189   6.306  18.012  0.00  0.00     0.190 A 
ATOM      7  C   UNL d   1       4.956   6.581  17.432  0.00  0.00     0.094 A 
ATOM      8  C   UNL d   1       3.495   5.284  19.266  0.00  0.00     0.085 A 
ATOM      9  C   UNL d   1       5.313   4.310  19.424  0.00  0.00     0.075 A 
ATOM     10  C   UNL d   1       4.519   4.018  20.031  0.00  0.00     0.071 A 
ATOM     11  C   UNL d   1       3.604   4.507  19.952  0.00  0.00     0.074 A 
ENDROOT
BRANCH   4  12
ATOM     12  C   UNL d   1       6.602   6.386  16.929  0.00  0.00     0.001 A 
ATOM     13  C   UNL d   1       6.641   6.086  15.976  0.00  0.00     0.054 A 
ATOM     14  C   UNL d   1       7.407   6.362  15.396  0.00  0.00     0.102 A 
ATOM     15  C   UNL d   1       8.135   6.938  15.769  0.00  0.00     0.099 A 
ATOM     16  C   UNL d   1       8.096   7.238  16.722  0.00  0.00     0.040 A 
ATOM     17  C   UNL d   1       7.329   6.962  17.302  0.00  0.00     0.017 A 
BRANCH  14  18
ATOM     18  O   UNL d   1       7.446   6.062  14.442  0.00  0.00    -0.353 OA
ATOM     19  C   UNL d   1       6.656   5.612  14.027  0.00  0.00     0.210 C 
ENDBRANCH  14  18
BRANCH  15  20
ATOM     20  O   UNL d   1       8.901   7.213  15.189  0.00  0.00    -0.358 OA
ATOM     21  H   UNL d   1       9.403   6.851  15.145  0.00  0.00     0.217 HD
ENDBRANCH  15  20
ENDBRANCH   4  12
BRANCH   8  22
ATOM     22  O   UNL d   1       2.620   5.761  19.181  0.00  0.00    -0.360 OA
ATOM     23  H   UNL d   1       2.373   6.045  19.673  0.00  0.00     0.217 HD
ENDBRANCH   8  22
BRANCH  10  24
ATOM     24  O   UNL d   1       4.636   3.271  20.686  0.00  0.00    -0.361 OA
ATOM     25  H   UNL d   1       4.202   3.166  21.117  0.00  0.00     0.217 HD
ENDBRANCH  10  24
TORSDOF 5
ENDMDL
MODEL 2
REMARK VINA RESULT:   -10.851      1.060      5.300
REMARK INTER + INTRA:         -11.028
REMARK INTER:                 -12.892
REMARK INTRA:                   1.864
REMARK UNBOUND:                 2.043
REMARK  5 active torsions:
REMARK  status: ('A' for Active; 'I' for Inactive)
REMARK    1  A    between atoms: O_2  and  C_13 
REMARK    2  A    between atoms: O_3  and  C_19 
REMARK    3  A    between atoms: O_5  and  C_17 
REMARK    4  A    between atoms: O_6  and  C_21 
REMARK    5  A    between atoms: C_8  and  C_10 
ROOT
ATOM      1  O   UNL d   1       5.342   5.863  16.055  0.00  0.00    -0.309 OA
ATOM      2  O   UNL d   1       7.814   7.367  16.845  0.00  0.00    -0.287 OA
ATOM      3  C   UNL d   1       6.888   6.528  15.646  0.00  0.00     0.081 A 
ATOM      4  C   UNL d   1       5.444   6.200  16.990  0.00  0.00     0.090 A 
ATOM      5  C   UNL d   1       6.064   6.026  15.382  0.00  0.00     0.095 A 
ATOM      6  C   UNL d   1       6.990   6.866  16.581  0.00  0.00     0.190 A 
ATOM      7  C   UNL d   1       6.268   6.702  17.254  0.00  0.00     0.094 A 
ATOM      8  C   UNL d   1       7.648   6.706  14.956  0.00  0.00     0.085 A 
ATOM      9  C   UNL d   1       5.943   5.668  14.412  0.00  0.00     0.075 A 
ATOM     10  C   UNL d   1       6.691   5.835  13.706  0.00  0.00     0.071 A 
ATOM     11  C   UNL d   1       7.548   6.357  13.980  0.00  0.00     0.074 A 
ENDROOT
BRANCH   4  12
ATOM     12  C   UNL d   1       4.722   6.037  17.663  0.00  0.00     0.001 A 
ATOM     13  C   UNL d   1       4.874   5.391  18.411  0.00  0.00     0.054 A 
ATOM     14  C   UNL d   1       4.152   5.228  19.084  0.00  0.00     0.102 A 
ATOM     15  C   UNL d   1       3.279   5.709  19.007  0.00  0.00     0.099 A 
ATOM     16  C   UNL d   1       3.128   6.355  18.259  0.00  0.00     0.040 A 
ATOM     17  C   UNL d   1       3.849   6.518  17.586  0.00  0.00     0.017 A 
BRANCH  14  18
ATOM     18  O   UNL d   1       4.303   4.582  19.833  0.00  0.00    -0.353 OA
ATOM     19  C   UNL d   1       5.041   3.911  19.773  0.00  0.00     0.210 C 
ENDBRANCH  14  18
BRANCH  15  20
ATOM     20  O   UNL d   1       2.557   5.546  19.680  0.00  0.00    -0.358 OA
ATOM     21  H   UNL d   1       2.690   5.262  20.215  0.00  0.00     0.217 HD
ENDBRANCH  15  20
ENDBRANCH   4  12
BRANCH   8  22
ATOM     22  O   UNL d   1       8.468   7.209  15.231  0.00  0.00    -0.360 OA
ATOM     23  H   UNL d   1       8.521   7.421  15.810  0.00  0.00     0.217 HD
ENDBRANCH   8  22
BRANCH  10  24
ATOM     24  O   UNL d   1       6.584   5.495  12.771  0.00  0.00    -0.361 OA
ATOM     25  H   UNL d   1       6.765   4.920  12.628  0.00  0.00     0.217 HD
ENDBRANCH  10  24
TORSDOF 5
ENDMDL
MODEL 3
REMARK VINA RESULT:   -10.284      1.080      2.081
REMARK INTER + INTRA:         -10.345
REMARK INTER:                 -12.270
REMARK INTRA:                   1.925
REMARK UNBOUND:                 2.043
REMARK  5 active torsions:
REMARK  status: ('A' for Active; 'I' for Inactive)
REMARK    1  A    between atoms: O_2  and  C_13 
REMARK    2  A    between atoms: O_3  and  C_19 
REMARK    3  A    between atoms: O_5  and  C_17 
REMARK    4  A    between atoms: O_6  and  C_21 
REMARK    5  A    between atoms: C_8  and  C_10 
ROOT
ATOM      1  O   UNL d   1       4.704   6.074  18.535  0.00  0.00    -0.309 OA
ATOM      2  O   UNL d   1       5.549   3.492  19.809  0.00  0.00    -0.287 OA
ATOM      3  C   UNL d   1       4.402   4.780  19.647  0.00  0.00     0.081 A 
ATOM      4  C   UNL d   1       5.569   5.647  18.273  0.00  0.00     0.090 A 
ATOM      5  C   UNL d   1       4.120   5.640  19.222  0.00  0.00     0.095 A 
ATOM      6  C   UNL d   1       5.267   4.353  19.385  0.00  0.00     0.190 A 
ATOM      7  C   UNL d   1       5.851   4.786  18.698  0.00  0.00     0.094 A 
ATOM      8  C   UNL d   1       3.805   4.317  20.363  0.00  0.00     0.085 A 
ATOM      9  C   UNL d   1       3.221   6.097  19.484  0.00  0.00     0.075 A 
ATOM     10  C   UNL d   1       2.608   5.651  20.199  0.00  0.00     0.071 A 
ATOM     11  C   UNL d   1       2.902   4.756  20.641  0.00  0.00     0.074 A 
ENDROOT
BRANCH   4  12
ATOM     12  C   UNL d   1       6.153   6.080  17.587  0.00  0.00     0.001 A 
ATOM     13  C   UNL d   1       5.818   6.204  16.652  0.00  0.00     0.054 A 
ATOM     14  C   UNL d   1       6.402   6.637  15.966  0.00  0.00     0.102 A 
ATOM     15  C   UNL d   1       7.320   6.947  16.213  0.00  0.00     0.099 A 
ATOM     16  C   UNL d   1       7.654   6.823  17.147  0.00  0.00     0.040 A 
ATOM     17  C   UNL d   1       7.071   6.389  17.834  0.00  0.00     0.017 A 
BRANCH  14  18
ATOM     18  O   UNL d   1       6.067   6.761  15.032  0.00  0.00    -0.353 OA
ATOM     19  C   UNL d   1       5.085   6.738  14.845  0.00  0.00     0.210 C 
ENDBRANCH  14  18
BRANCH  15  20
ATOM     20  O   UNL d   1       7.904   7.380  15.527  0.00  0.00    -0.358 OA
ATOM     21  H   UNL d   1       8.307   7.820  15.695  0.00  0.00     0.217 HD
ENDBRANCH  15  20
ENDBRANCH   4  12
BRANCH   8  22
ATOM     22  O   UNL d   1       4.096   3.457  20.781  0.00  0.00    -0.360 OA
ATOM     23  H   UNL d   1       4.250   2.975  20.423  0.00  0.00     0.217 HD
ENDBRANCH   8  22
BRANCH  10  24
ATOM     24  O   UNL d   1       1.743   6.082  20.458  0.00  0.00    -0.361 OA
ATOM     25  H   UNL d   1       1.265   6.077  20.064  0.00  0.00     0.217 HD
ENDBRANCH  10  24
TORSDOF 5
ENDMDL
MODEL 4
REMARK VINA RESULT:   -10.211     45.150     47.976
REMARK INTER + INTRA:         -10.258
REMARK INTER:                 -12.237
REMARK INTRA:                   1.980
REMARK UNBOUND:                 2.043
REMARK  5 active torsions:
REMARK  status: ('A' for Active; 'I' for Inactive)
REMARK    1  A    between atoms: O_2  and  C_13 
REMARK    2  A    between atoms: O_3  and  C_19 
REMARK    3  A    between atoms: O_5  and  C_17 
REMARK    4  A    between atoms: O_6  and  C_21 
REMARK    5  A    between atoms: C_8  and  C_10 
ROOT
ATOM      1  O   UNL d   1      21.321  -1.691 -26.652  0.00  0.00    -0.309 OA
ATOM      2  O   UNL d   1      22.469  -1.572 -29.421  0.00  0.00    -0.287 OA
ATOM      3  C   UNL d   1      21.100  -1.518 -28.361  0.00  0.00     0.081 A 
ATOM      4  C   UNL d   1      22.307  -1.786 -26.789  0.00  0.00     0.090 A 
ATOM      5  C   UNL d   1      20.718  -1.557 -27.438  0.00  0.00     0.095 A 
ATOM      6  C   UNL d   1      22.086  -1.612 -28.498  0.00  0.00     0.190 A 
ATOM      7  C   UNL d   1      22.690  -1.746 -27.712  0.00  0.00     0.094 A 
ATOM      8  C   UNL d   1      20.484  -1.378 -29.189  0.00  0.00     0.085 A 
ATOM      9  C   UNL d   1      19.692  -1.461 -27.279  0.00  0.00     0.075 A 
ATOM     10  C   UNL d   1      19.058  -1.321 -28.093  0.00  0.00     0.071 A 
ATOM     11  C   UNL d   1      19.456  -1.279 -29.054  0.00  0.00     0.074 A 
ENDROOT
BRANCH   4  12
ATOM     12  C   UNL d   1      22.911  -1.920 -26.003  0.00  0.00     0.001 A 
ATOM     13  C   UNL d   1      22.870  -1.289 -25.228  0.00  0.00     0.054 A 
ATOM     14  C   UNL d   1      23.474  -1.423 -24.442  0.00  0.00     0.102 A 
ATOM     15  C   UNL d   1      24.118  -2.188 -24.431  0.00  0.00     0.099 A 
ATOM     16  C   UNL d   1      24.158  -2.819 -25.206  0.00  0.00     0.040 A 
ATOM     17  C   UNL d   1      23.555  -2.685 -25.992  0.00  0.00     0.017 A 
BRANCH  14  18
ATOM     18  O   UNL d   1      23.433  -0.792 -23.668  0.00  0.00    -0.353 OA
ATOM     19  C   UNL d   1      22.689  -0.127 -23.602  0.00  0.00     0.210 C 
ENDBRANCH  14  18
BRANCH  15  20
ATOM     20  O   UNL d   1      24.721  -2.322 -23.645  0.00  0.00    -0.358 OA
ATOM     21  H   UNL d   1      24.547  -2.694 -23.181  0.00  0.00     0.217 HD
ENDBRANCH  15  20
ENDBRANCH   4  12
BRANCH   8  22
ATOM     22  O   UNL d   1      20.877  -1.340 -30.107  0.00  0.00    -0.360 OA
ATOM     23  H   UNL d   1      21.216  -1.814 -30.319  0.00  0.00     0.217 HD
ENDBRANCH   8  22
BRANCH  10  24
ATOM     24  O   UNL d   1      18.072  -1.227 -27.951  0.00  0.00    -0.361 OA
ATOM     25  H   UNL d   1      17.726  -0.926 -28.369  0.00  0.00     0.217 HD
ENDBRANCH  10  24
TORSDOF 5
ENDMDL
MODEL 5
REMARK VINA RESULT:   -10.114     45.595     48.169
REMARK INTER + INTRA:         -10.140
REMARK INTER:                 -12.310
REMARK INTRA:                   2.169
REMARK UNBOUND:                 2.043
REMARK  5 active torsions:
REMARK  status: ('A' for Active; 'I' for Inactive)
REMARK    1  A    between atoms: O_2  and  C_13 
REMARK    2  A    between atoms: O_3  and  C_19 
REMARK    3  A    between atoms: O_5  and  C_17 
REMARK    4  A    between atoms: O_6  and  C_21 
REMARK    5  A    between atoms: C_8  and  C_10 
ROOT
ATOM      1  O   UNL d   1      22.167  -1.624 -26.614  0.00  0.00    -0.309 OA
ATOM      2  O   UNL d   1      24.313  -2.854 -24.916  0.00  0.00    -0.287 OA
ATOM      3  C   UNL d   1      23.206  -1.559 -25.230  0.00  0.00     0.081 A 
ATOM      4  C   UNL d   1      22.559  -2.509 -26.866  0.00  0.00     0.090 A 
ATOM      5  C   UNL d   1      22.491  -1.149 -25.796  0.00  0.00     0.095 A 
ATOM      6  C   UNL d   1      23.598  -2.444 -25.482  0.00  0.00     0.190 A 
ATOM      7  C   UNL d   1      23.274  -2.919 -26.301  0.00  0.00     0.094 A 
ATOM      8  C   UNL d   1      23.553  -1.076 -24.375  0.00  0.00     0.085 A 
ATOM      9  C   UNL d   1      22.073  -0.228 -25.546  0.00  0.00     0.075 A 
ATOM     10  C   UNL d   1      22.405   0.272 -24.694  0.00  0.00     0.071 A 
ATOM     11  C   UNL d   1      23.150  -0.155 -24.105  0.00  0.00     0.074 A 
ENDROOT
BRANCH   4  12
ATOM     12  C   UNL d   1      22.235  -2.983 -27.685  0.00  0.00     0.001 A 
ATOM     13  C   UNL d   1      22.227  -3.983 -27.713  0.00  0.00     0.054 A 
ATOM     14  C   UNL d   1      21.903  -4.458 -28.531  0.00  0.00     0.102 A 
ATOM     15  C   UNL d   1      21.588  -3.933 -29.322  0.00  0.00     0.099 A 
ATOM     16  C   UNL d   1      21.596  -2.933 -29.294  0.00  0.00     0.040 A 
ATOM     17  C   UNL d   1      21.920  -2.459 -28.476  0.00  0.00     0.017 A 
BRANCH  14  18
ATOM     18  O   UNL d   1      21.894  -5.457 -28.559  0.00  0.00    -0.353 OA
ATOM     19  C   UNL d   1      22.331  -5.982 -27.828  0.00  0.00     0.210 C 
ENDBRANCH  14  18
BRANCH  15  20
ATOM     20  O   UNL d   1      21.264  -4.408 -30.140  0.00  0.00    -0.358 OA
ATOM     21  H   UNL d   1      21.371  -4.167 -30.701  0.00  0.00     0.217 HD
ENDBRANCH  15  20
ENDBRANCH   4  12
BRANCH   8  22
ATOM     22  O   UNL d   1      24.269  -1.496 -23.816  0.00  0.00    -0.360 OA
ATOM     23  H   UNL d   1      24.273  -1.409 -23.203  0.00  0.00     0.217 HD
ENDBRANCH   8  22
BRANCH  10  24
ATOM     24  O   UNL d   1      22.011   1.157 -24.445  0.00  0.00    -0.361 OA
ATOM     25  H   UNL d   1      21.666   1.469 -24.856  0.00  0.00     0.217 HD
ENDBRANCH  10  24
TORSDOF 5
ENDMDL
