MODEL 1
REMARK VINA RESULT:    -7.238      0.000      0.000
REMARK INTER + INTRA:          -7.994
REMARK INTER:                  -8.946
REMARK INTRA:                   0.952
REMARK UNBOUND:                 1.148
REMARK  6 active torsions:
REMARK  status: ('A' for Active; 'I' for Inactive)
REMARK    1  A    between atoms: O_1  and  C_8 
REMARK    2  A    between atoms: O_2  and  C_9 
REMARK    3  A    between atoms: O_3  and  C_13 
REMARK    4  A    between atoms: C_5  and  C_11 
REMARK    5  A    between atoms: C_11  and  C_12 
REMARK    6  A    between atoms: C_12  and  C_13 
ROOT
ATOM      1  C   UNL d   1       8.828  -4.354  17.549  0.00  0.00    -0.033 A 
ATOM      2  C   UNL d   1       9.576  -4.469  18.202  0.00  0.00     0.050 A 
ATOM      3  C   UNL d   1       8.122  -3.665  17.713  0.00  0.00     0.014 A 
ATOM      4  C   UNL d   1       9.618  -3.894  19.020  0.00  0.00     0.099 A 
ATOM      5  C   UNL d   1       8.913  -3.205  19.183  0.00  0.00     0.098 A 
ATOM      6  C   UNL d   1       8.165  -3.090  18.530  0.00  0.00     0.040 A 
ENDROOT
BRANCH   1   7
ATOM      7  C   UNL d   1       8.785  -4.929  16.732  0.00  0.00     0.018 C 
BRANCH   7   8
ATOM      8  C   UNL d   1       8.183  -5.727  16.712  0.00  0.00     0.082 C 
BRANCH   8   9
ATOM      9  C   UNL d   1       8.098  -6.269  15.877  0.00  0.00     0.165 C 
ATOM     10  O   UNL d   1       7.254  -6.236  15.342  0.00  0.00    -0.647 OA
BRANCH   9  11
ATOM     11  O   UNL d   1       8.858  -6.846  15.576  0.00  0.00    -0.773 OA
ATOM     12  H   UNL d   1       9.216  -7.130  15.994  0.00  0.00     0.167 HD
ENDBRANCH   9  11
ENDBRANCH   8   9
ENDBRANCH   7   8
ENDBRANCH   1   7
BRANCH   4  13
ATOM     13  O   UNL d   1      10.367  -4.009  19.673  0.00  0.00    -0.358 OA
ATOM     14  H   UNL d   1      10.826  -4.407  19.551  0.00  0.00     0.217 HD
ENDBRANCH   4  13
BRANCH   5  15
ATOM     15  O   UNL d   1       8.955  -2.630  20.000  0.00  0.00    -0.358 OA
ATOM     16  H   UNL d   1       8.930  -2.889  20.563  0.00  0.00     0.217 HD
ENDBRANCH   5  15
TORSDOF 6
ENDMDL
MODEL 2
REMARK VINA RESULT:    -7.064      2.125      3.033
REMARK INTER + INTRA:          -7.774
REMARK INTER:                  -8.739
REMARK INTRA:                   0.965
REMARK UNBOUND:                 1.148
REMARK  6 active torsions:
REMARK  status: ('A' for Active; 'I' for Inactive)
REMARK    1  A    between atoms: O_1  and  C_8 
REMARK    2  A    between atoms: O_2  and  C_9 
REMARK    3  A    between atoms: O_3  and  C_13 
REMARK    4  A    between atoms: C_5  and  C_11 
REMARK    5  A    between atoms: C_11  and  C_12 
REMARK    6  A    between atoms: C_12  and  C_13 
ROOT
ATOM      1  C   UNL d   1       7.999  -3.593  17.725  0.00  0.00    -0.033 A 
ATOM      2  C   UNL d   1       8.420  -3.206  18.545  0.00  0.00     0.050 A 
ATOM      3  C   UNL d   1       8.419  -4.378  17.269  0.00  0.00     0.014 A 
ATOM      4  C   UNL d   1       9.261  -3.605  18.910  0.00  0.00     0.099 A 
ATOM      5  C   UNL d   1       9.681  -4.390  18.455  0.00  0.00     0.098 A 
ATOM      6  C   UNL d   1       9.260  -4.777  17.635  0.00  0.00     0.040 A 
ENDROOT
BRANCH   1   7
ATOM      7  C   UNL d   1       7.158  -3.194  17.359  0.00  0.00     0.018 C 
BRANCH   7   8
ATOM      8  C   UNL d   1       7.190  -2.324  16.867  0.00  0.00     0.082 C 
BRANCH   8   9
ATOM      9  C   UNL d   1       6.391  -2.011  16.352  0.00  0.00     0.165 C 
ATOM     10  O   UNL d   1       6.482  -1.773  15.385  0.00  0.00    -0.647 OA
BRANCH   9  11
ATOM     11  O   UNL d   1       5.502  -1.938  16.804  0.00  0.00    -0.773 OA
ATOM     12  H   UNL d   1       5.074  -2.378  16.719  0.00  0.00     0.167 HD
ENDBRANCH   9  11
ENDBRANCH   8   9
ENDBRANCH   7   8
ENDBRANCH   1   7
BRANCH   4  13
ATOM     13  O   UNL d   1       9.683  -3.219  19.731  0.00  0.00    -0.358 OA
ATOM     14  H   UNL d   1      10.168  -3.502  19.993  0.00  0.00     0.217 HD
ENDBRANCH   4  13
BRANCH   5  15
ATOM     15  O   UNL d   1      10.522  -4.789  18.820  0.00  0.00    -0.358 OA
ATOM     16  H   UNL d   1      11.066  -4.508  18.723  0.00  0.00     0.217 HD
ENDBRANCH   5  15
TORSDOF 6
ENDMDL
MODEL 3
REMARK VINA RESULT:    -7.043      9.740     11.026
REMARK INTER + INTRA:          -7.748
REMARK INTER:                  -8.697
REMARK INTRA:                   0.949
REMARK UNBOUND:                 1.148
REMARK  6 active torsions:
REMARK  status: ('A' for Active; 'I' for Inactive)
REMARK    1  A    between atoms: O_1  and  C_8 
REMARK    2  A    between atoms: O_2  and  C_9 
REMARK    3  A    between atoms: O_3  and  C_13 
REMARK    4  A    between atoms: C_5  and  C_11 
REMARK    5  A    between atoms: C_11  and  C_12 
REMARK    6  A    between atoms: C_12  and  C_13 
ROOT
ATOM      1  C   UNL d   1       4.964   5.297  18.855  0.00  0.00    -0.033 A 
ATOM      2  C   UNL d   1       5.286   4.473  19.320  0.00  0.00     0.050 A 
ATOM      3  C   UNL d   1       4.038   5.636  19.023  0.00  0.00     0.014 A 
ATOM      4  C   UNL d   1       4.683   3.987  19.952  0.00  0.00     0.099 A 
ATOM      5  C   UNL d   1       3.757   4.326  20.120  0.00  0.00     0.098 A 
ATOM      6  C   UNL d   1       3.435   5.151  19.655  0.00  0.00     0.040 A 
ENDROOT
BRANCH   1   7
ATOM      7  C   UNL d   1       5.568   5.783  18.223  0.00  0.00     0.018 C 
BRANCH   7   8
ATOM      8  C   UNL d   1       6.303   6.361  18.577  0.00  0.00     0.082 C 
BRANCH   8   9
ATOM      9  C   UNL d   1       6.903   6.851  17.945  0.00  0.00     0.165 C 
ATOM     10  O   UNL d   1       7.590   6.351  17.418  0.00  0.00    -0.647 OA
BRANCH   9  11
ATOM     11  O   UNL d   1       6.816   7.841  17.840  0.00  0.00    -0.773 OA
ATOM     12  H   UNL d   1       7.270   8.166  17.570  0.00  0.00     0.167 HD
ENDBRANCH   9  11
ENDBRANCH   8   9
ENDBRANCH   7   8
ENDBRANCH   1   7
BRANCH   4  13
ATOM     13  O   UNL d   1       5.005   3.163  20.417  0.00  0.00    -0.358 OA
ATOM     14  H   UNL d   1       5.610   3.086  20.530  0.00  0.00     0.217 HD
ENDBRANCH   4  13
BRANCH   5  15
ATOM     15  O   UNL d   1       3.153   3.841  20.752  0.00  0.00    -0.358 OA
ATOM     16  H   UNL d   1       2.551   3.776  20.618  0.00  0.00     0.217 HD
ENDBRANCH   5  15
TORSDOF 6
ENDMDL
MODEL 4
REMARK VINA RESULT:    -7.007     11.041     11.666
REMARK INTER + INTRA:          -7.702
REMARK INTER:                  -8.826
REMARK INTRA:                   1.124
REMARK UNBOUND:                 1.148
REMARK  6 active torsions:
REMARK  status: ('A' for Active; 'I' for Inactive)
REMARK    1  A    between atoms: O_1  and  C_8 
REMARK    2  A    between atoms: O_2  and  C_9 
REMARK    3  A    between atoms: O_3  and  C_13 
REMARK    4  A    between atoms: C_5  and  C_11 
REMARK    5  A    between atoms: C_11  and  C_12 
REMARK    6  A    between atoms: C_12  and  C_13 
ROOT
ATOM      1  C   UNL d   1       5.000   5.931  16.672  0.00  0.00    -0.033 A 
ATOM      2  C   UNL d   1       4.078   6.261  16.472  0.00  0.00     0.050 A 
ATOM      3  C   UNL d   1       5.258   5.705  17.611  0.00  0.00     0.014 A 
ATOM      4  C   UNL d   1       3.413   6.366  17.212  0.00  0.00     0.099 A 
ATOM      5  C   UNL d   1       3.671   6.140  18.152  0.00  0.00     0.098 A 
ATOM      6  C   UNL d   1       4.594   5.809  18.351  0.00  0.00     0.040 A 
ENDROOT
BRANCH   1   7
ATOM      7  C   UNL d   1       5.665   5.827  15.932  0.00  0.00     0.018 C 
BRANCH   7   8
ATOM      8  C   UNL d   1       5.403   6.043  14.991  0.00  0.00     0.082 C 
BRANCH   8   9
ATOM      9  C   UNL d   1       6.052   5.892  14.245  0.00  0.00     0.165 C 
ATOM     10  O   UNL d   1       6.826   6.513  14.122  0.00  0.00    -0.647 OA
BRANCH   9  11
ATOM     11  O   UNL d   1       5.926   5.121  13.621  0.00  0.00    -0.773 OA
ATOM     12  H   UNL d   1       5.885   5.219  13.010  0.00  0.00     0.167 HD
ENDBRANCH   9  11
ENDBRANCH   8   9
ENDBRANCH   7   8
ENDBRANCH   1   7
BRANCH   4  13
ATOM     13  O   UNL d   1       2.491   6.696  17.013  0.00  0.00    -0.358 OA
ATOM     14  H   UNL d   1       2.195   6.502  16.504  0.00  0.00     0.217 HD
ENDBRANCH   4  13
BRANCH   5  15
ATOM     15  O   UNL d   1       3.007   6.244  18.892  0.00  0.00    -0.358 OA
ATOM     16  H   UNL d   1       2.410   6.349  18.760  0.00  0.00     0.217 HD
ENDBRANCH   5  15
TORSDOF 6
ENDMDL
MODEL 5
REMARK VINA RESULT:    -6.996     11.725     12.850
REMARK INTER + INTRA:          -7.688
REMARK INTER:                  -8.638
REMARK INTRA:                   0.950
REMARK UNBOUND:                 1.148
REMARK  6 active torsions:
REMARK  status: ('A' for Active; 'I' for Inactive)
REMARK    1  A    between atoms: O_1  and  C_8 
REMARK    2  A    between atoms: O_2  and  C_9 
REMARK    3  A    between atoms: O_3  and  C_13 
REMARK    4  A    between atoms: C_5  and  C_11 
REMARK    5  A    between atoms: C_11  and  C_12 
REMARK    6  A    between atoms: C_12  and  C_13 
ROOT
ATOM      1  C   UNL d   1       5.505   7.065  15.269  0.00  0.00    -0.033 A 
ATOM      2  C   UNL d   1       5.602   8.056  15.172  0.00  0.00     0.050 A 
ATOM      3  C   UNL d   1       6.240   6.459  14.968  0.00  0.00     0.014 A 
ATOM      4  C   UNL d   1       6.435   8.440  14.774  0.00  0.00     0.099 A 
ATOM      5  C   UNL d   1       7.171   7.833  14.473  0.00  0.00     0.098 A 
ATOM      6  C   UNL d   1       7.074   6.843  14.570  0.00  0.00     0.040 A 
ENDROOT
BRANCH   1   7
ATOM      7  C   UNL d   1       4.671   6.681  15.667  0.00  0.00     0.018 C 
BRANCH   7   8
ATOM      8  C   UNL d   1       4.459   6.839  16.631  0.00  0.00     0.082 C 
BRANCH   8   9
ATOM      9  C   UNL d   1       3.663   6.399  17.047  0.00  0.00     0.165 C 
ATOM     10  O   UNL d   1       3.780   5.579  17.607  0.00  0.00    -0.647 OA
BRANCH   9  11
ATOM     11  O   UNL d   1       2.749   6.780  16.901  0.00  0.00    -0.773 OA
ATOM     12  H   UNL d   1       2.679   7.387  16.797  0.00  0.00     0.167 HD
ENDBRANCH   9  11
ENDBRANCH   8   9
ENDBRANCH   7   8
ENDBRANCH   1   7
BRANCH   4  13
ATOM     13  O   UNL d   1       6.533   9.430  14.678  0.00  0.00    -0.358 OA
ATOM     14  H   UNL d   1       6.459   9.799  15.171  0.00  0.00     0.217 HD
ENDBRANCH   4  13
BRANCH   5  15
ATOM     15  O   UNL d   1       8.004   8.217  14.075  0.00  0.00    -0.358 OA
ATOM     16  H   UNL d   1       8.120   8.145  13.471  0.00  0.00     0.217 HD
ENDBRANCH   5  15
TORSDOF 6
ENDMDL
