MODEL 1
REMARK VINA RESULT:    -7.293      0.000      0.000
REMARK INTER + INTRA:          -8.319
REMARK INTER:                  -9.202
REMARK INTRA:                   0.882
REMARK UNBOUND:                 0.892
REMARK  6 active torsions:
REMARK  status: ('A' for Active; 'I' for Inactive)
REMARK    1  A    between atoms: O_1  and  C_12 
REMARK    2  A    between atoms: O_1  and  C_13 
REMARK    3  A    between atoms: O_2  and  C_9 
REMARK    4  A    between atoms: O_3  and  C_10 
REMARK    5  A    between atoms: O_4  and  C_11 
REMARK    6  A    between atoms: C_6  and  C_12 
ROOT
ATOM      1  C   UNL d   1       8.759  -4.399  17.564  0.00  0.00     0.044 A 
ATOM      2  C   UNL d   1       9.542  -4.469  18.182  0.00  0.00     0.057 A 
ATOM      3  C   UNL d   1       8.025  -3.749  17.760  0.00  0.00     0.057 A 
ATOM      4  C   UNL d   1       8.073  -3.169  18.573  0.00  0.00     0.102 A 
ATOM      5  C   UNL d   1       9.591  -3.890  18.995  0.00  0.00     0.102 A 
ATOM      6  C   UNL d   1       8.857  -3.240  19.191  0.00  0.00     0.132 A 
ENDROOT
BRANCH   1   7
ATOM      7  C   UNL d   1       8.711  -4.978  16.750  0.00  0.00     0.293 C 
ATOM      8  O   UNL d   1       9.096  -4.658  15.885  0.00  0.00    -0.259 OA
BRANCH   7   9
ATOM      9  O   UNL d   1       8.277  -5.878  16.802  0.00  0.00    -0.318 OA
BRANCH   9  10
ATOM     10  C   UNL d   1       8.143  -6.417  15.971  0.00  0.00     0.174 C 
ATOM     11  C   UNL d   1       7.856  -7.373  16.036  0.00  0.00     0.034 C 
ENDBRANCH   9  10
ENDBRANCH   7   9
ENDBRANCH   1   7
BRANCH   5  12
ATOM     12  O   UNL d   1      10.374  -3.960  19.613  0.00  0.00    -0.358 OA
ATOM     13  H   UNL d   1      10.861  -4.311  19.458  0.00  0.00     0.217 HD
ENDBRANCH   5  12
BRANCH   4  14
ATOM     14  O   UNL d   1       7.339  -2.520  18.769  0.00  0.00    -0.358 OA
ATOM     15  H   UNL d   1       6.757  -2.650  18.600  0.00  0.00     0.217 HD
ENDBRANCH   4  14
BRANCH   6  16
ATOM     16  O   UNL d   1       8.905  -2.660  20.004  0.00  0.00    -0.356 OA
ATOM     17  H   UNL d   1       8.468  -2.233  20.108  0.00  0.00     0.218 HD
ENDBRANCH   6  16
TORSDOF 6
ENDMDL
MODEL 2
REMARK VINA RESULT:    -7.184      9.580     10.649
REMARK INTER + INTRA:          -8.182
REMARK INTER:                  -9.058
REMARK INTRA:                   0.877
REMARK UNBOUND:                 0.892
REMARK  6 active torsions:
REMARK  status: ('A' for Active; 'I' for Inactive)
REMARK    1  A    between atoms: O_1  and  C_12 
REMARK    2  A    between atoms: O_1  and  C_13 
REMARK    3  A    between atoms: O_2  and  C_9 
REMARK    4  A    between atoms: O_3  and  C_10 
REMARK    5  A    between atoms: O_4  and  C_11 
REMARK    6  A    between atoms: C_6  and  C_12 
ROOT
ATOM      1  C   UNL d   1       4.857   5.302  18.815  0.00  0.00     0.044 A 
ATOM      2  C   UNL d   1       5.173   4.485  19.297  0.00  0.00     0.057 A 
ATOM      3  C   UNL d   1       3.947   5.672  19.003  0.00  0.00     0.057 A 
ATOM      4  C   UNL d   1       3.354   5.226  19.673  0.00  0.00     0.102 A 
ATOM      5  C   UNL d   1       4.580   4.038  19.967  0.00  0.00     0.102 A 
ATOM      6  C   UNL d   1       3.670   4.409  20.155  0.00  0.00     0.132 A 
ENDROOT
BRANCH   1   7
ATOM      7  C   UNL d   1       5.450   5.748  18.145  0.00  0.00     0.293 C 
ATOM      8  O   UNL d   1       6.149   6.396  18.450  0.00  0.00    -0.259 OA
BRANCH   7   9
ATOM      9  O   UNL d   1       5.345   5.547  17.172  0.00  0.00    -0.318 OA
BRANCH   9  10
ATOM     10  C   UNL d   1       5.842   6.087  16.493  0.00  0.00     0.174 C 
ATOM     11  C   UNL d   1       5.689   5.928  15.517  0.00  0.00     0.034 C 
ENDBRANCH   9  10
ENDBRANCH   7   9
ENDBRANCH   1   7
BRANCH   5  12
ATOM     12  O   UNL d   1       4.896   3.221  20.449  0.00  0.00    -0.358 OA
ATOM     13  H   UNL d   1       4.935   3.222  21.068  0.00  0.00     0.217 HD
ENDBRANCH   5  12
BRANCH   4  14
ATOM     14  O   UNL d   1       2.444   5.596  19.860  0.00  0.00    -0.358 OA
ATOM     15  H   UNL d   1       2.348   5.939  20.368  0.00  0.00     0.217 HD
ENDBRANCH   4  14
BRANCH   6  16
ATOM     16  O   UNL d   1       3.077   3.962  20.825  0.00  0.00    -0.356 OA
ATOM     17  H   UNL d   1       3.279   3.866  21.403  0.00  0.00     0.218 HD
ENDBRANCH   6  16
TORSDOF 6
ENDMDL
MODEL 3
REMARK VINA RESULT:    -6.965     12.638     13.861
REMARK INTER + INTRA:          -7.905
REMARK INTER:                  -8.916
REMARK INTRA:                   1.011
REMARK UNBOUND:                 0.892
REMARK  6 active torsions:
REMARK  status: ('A' for Active; 'I' for Inactive)
REMARK    1  A    between atoms: O_1  and  C_12 
REMARK    2  A    between atoms: O_1  and  C_13 
REMARK    3  A    between atoms: O_2  and  C_9 
REMARK    4  A    between atoms: O_3  and  C_10 
REMARK    5  A    between atoms: O_4  and  C_11 
REMARK    6  A    between atoms: C_6  and  C_12 
ROOT
ATOM      1  C   UNL d   1      15.394   6.391  21.562  0.00  0.00     0.044 A 
ATOM      2  C   UNL d   1      16.129   6.982  21.228  0.00  0.00     0.057 A 
ATOM      3  C   UNL d   1      15.585   5.437  21.792  0.00  0.00     0.057 A 
ATOM      4  C   UNL d   1      16.510   5.073  21.689  0.00  0.00     0.102 A 
ATOM      5  C   UNL d   1      17.054   6.618  21.124  0.00  0.00     0.102 A 
ATOM      6  C   UNL d   1      17.245   5.664  21.355  0.00  0.00     0.132 A 
ENDROOT
BRANCH   1   7
ATOM      7  C   UNL d   1      14.468   6.755  21.665  0.00  0.00     0.293 C 
ATOM      8  O   UNL d   1      13.681   6.208  21.381  0.00  0.00    -0.259 OA
BRANCH   7   9
ATOM      9  O   UNL d   1      14.329   7.666  22.054  0.00  0.00    -0.318 OA
BRANCH   9  10
ATOM     10  C   UNL d   1      13.414   7.957  22.332  0.00  0.00     0.174 C 
ATOM     11  C   UNL d   1      13.277   8.864  22.730  0.00  0.00     0.034 C 
ENDBRANCH   9  10
ENDBRANCH   7   9
ENDBRANCH   1   7
BRANCH   5  12
ATOM     12  O   UNL d   1      17.789   7.208  20.791  0.00  0.00    -0.358 OA
ATOM     13  H   UNL d   1      17.718   7.522  20.260  0.00  0.00     0.217 HD
ENDBRANCH   5  12
BRANCH   4  14
ATOM     14  O   UNL d   1      16.701   4.119  21.919  0.00  0.00    -0.358 OA
ATOM     15  H   UNL d   1      16.638   3.923  22.504  0.00  0.00     0.217 HD
ENDBRANCH   4  14
BRANCH   6  16
ATOM     16  O   UNL d   1      18.171   5.300  21.251  0.00  0.00    -0.356 OA
ATOM     17  H   UNL d   1      18.262   4.766  20.950  0.00  0.00     0.218 HD
ENDBRANCH   6  16
TORSDOF 6
ENDMDL
MODEL 4
REMARK VINA RESULT:    -6.935     10.786     11.694
REMARK INTER + INTRA:          -7.867
REMARK INTER:                  -8.818
REMARK INTRA:                   0.951
REMARK UNBOUND:                 0.892
REMARK  6 active torsions:
REMARK  status: ('A' for Active; 'I' for Inactive)
REMARK    1  A    between atoms: O_1  and  C_12 
REMARK    2  A    between atoms: O_1  and  C_13 
REMARK    3  A    between atoms: O_2  and  C_9 
REMARK    4  A    between atoms: O_3  and  C_10 
REMARK    5  A    between atoms: O_4  and  C_11 
REMARK    6  A    between atoms: C_6  and  C_12 
ROOT
ATOM      1  C   UNL d   1       6.358   6.440  15.549  0.00  0.00     0.044 A 
ATOM      2  C   UNL d   1       6.768   7.014  14.841  0.00  0.00     0.057 A 
ATOM      3  C   UNL d   1       6.922   6.084  16.294  0.00  0.00     0.057 A 
ATOM      4  C   UNL d   1       7.897   6.303  16.331  0.00  0.00     0.102 A 
ATOM      5  C   UNL d   1       7.743   7.233  14.878  0.00  0.00     0.102 A 
ATOM      6  C   UNL d   1       8.308   6.877  15.623  0.00  0.00     0.132 A 
ENDROOT
BRANCH   1   7
ATOM      7  C   UNL d   1       5.383   6.221  15.512  0.00  0.00     0.293 C 
ATOM      8  O   UNL d   1       5.022   5.673  14.757  0.00  0.00    -0.259 OA
BRANCH   7   9
ATOM      9  O   UNL d   1       4.769   6.550  16.229  0.00  0.00    -0.318 OA
BRANCH   9  10
ATOM     10  C   UNL d   1       3.830   6.208  16.280  0.00  0.00     0.174 C 
ATOM     11  C   UNL d   1       3.277   6.384  17.094  0.00  0.00     0.034 C 
ENDBRANCH   9  10
ENDBRANCH   7   9
ENDBRANCH   1   7
BRANCH   5  12
ATOM     12  O   UNL d   1       8.154   7.807  14.170  0.00  0.00    -0.358 OA
ATOM     13  H   UNL d   1       8.537   8.269  14.329  0.00  0.00     0.217 HD
ENDBRANCH   5  12
BRANCH   4  14
ATOM     14  O   UNL d   1       8.461   5.947  17.076  0.00  0.00    -0.358 OA
ATOM     15  H   UNL d   1       8.249   5.488  17.434  0.00  0.00     0.217 HD
ENDBRANCH   4  14
BRANCH   6  16
ATOM     16  O   UNL d   1       9.283   7.096  15.660  0.00  0.00    -0.356 OA
ATOM     17  H   UNL d   1       9.578   7.284  15.149  0.00  0.00     0.218 HD
ENDBRANCH   6  16
TORSDOF 6
ENDMDL
MODEL 5
REMARK VINA RESULT:    -6.917     44.803     46.164
REMARK INTER + INTRA:          -7.844
REMARK INTER:                  -8.719
REMARK INTRA:                   0.875
REMARK UNBOUND:                 0.892
REMARK  6 active torsions:
REMARK  status: ('A' for Active; 'I' for Inactive)
REMARK    1  A    between atoms: O_1  and  C_12 
REMARK    2  A    between atoms: O_1  and  C_13 
REMARK    3  A    between atoms: O_2  and  C_9 
REMARK    4  A    between atoms: O_3  and  C_10 
REMARK    5  A    between atoms: O_4  and  C_11 
REMARK    6  A    between atoms: C_6  and  C_12 
ROOT
ATOM      1  C   UNL d   1      23.055  -2.083 -25.904  0.00  0.00     0.044 A 
ATOM      2  C   UNL d   1      23.677  -2.850 -25.749  0.00  0.00     0.057 A 
ATOM      3  C   UNL d   1      23.020  -1.328 -25.251  0.00  0.00     0.057 A 
ATOM      4  C   UNL d   1      23.606  -1.339 -24.441  0.00  0.00     0.102 A 
ATOM      5  C   UNL d   1      24.264  -2.862 -24.939  0.00  0.00     0.102 A 
ATOM      6  C   UNL d   1      24.229  -2.106 -24.285  0.00  0.00     0.132 A 
ENDROOT
BRANCH   1   7
ATOM      7  C   UNL d   1      22.468  -2.072 -26.714  0.00  0.00     0.293 C 
ATOM      8  O   UNL d   1      21.513  -2.360 -26.643  0.00  0.00    -0.259 OA
BRANCH   7   9
ATOM      9  O   UNL d   1      22.836  -1.773 -27.594  0.00  0.00    -0.318 OA
BRANCH   9  10
ATOM     10  C   UNL d   1      22.236  -1.708 -28.391  0.00  0.00     0.174 C 
ATOM     11  C   UNL d   1      22.609  -1.432 -29.277  0.00  0.00     0.034 C 
ENDBRANCH   9  10
ENDBRANCH   7   9
ENDBRANCH   1   7
BRANCH   5  12
ATOM     12  O   UNL d   1      24.887  -3.629 -24.783  0.00  0.00    -0.358 OA
ATOM     13  H   UNL d   1      24.982  -4.046 -25.231  0.00  0.00     0.217 HD
ENDBRANCH   5  12
BRANCH   4  14
ATOM     14  O   UNL d   1      23.571  -0.583 -23.787  0.00  0.00    -0.358 OA
ATOM     15  H   UNL d   1      23.768  -0.667 -23.205  0.00  0.00     0.217 HD
ENDBRANCH   4  14
BRANCH   6  16
ATOM     16  O   UNL d   1      24.816  -2.117 -23.476  0.00  0.00    -0.356 OA
ATOM     17  H   UNL d   1      25.353  -2.427 -23.486  0.00  0.00     0.218 HD
ENDBRANCH   6  16
TORSDOF 6
ENDMDL
