MODEL 1
REMARK VINA RESULT:   -10.416      0.000      0.000
REMARK INTER + INTRA:          -1.131
REMARK INTER:                 -13.583
REMARK INTRA:                  12.451
REMARK UNBOUND:                12.938
REMARK  9 active torsions:
REMARK  status: ('A' for Active; 'I' for Inactive)
REMARK    1  A    between atoms: C_15  and  O_2 
REMARK    2  A    between atoms: O_2  and  C_17 
REMARK    3  A    between atoms: C_11  and  O_3 
REMARK    4  A    between atoms: C_12  and  O_4 
REMARK    5  A    between atoms: C_13  and  O_5 
REMARK    6  A    between atoms: O_8  and  C_23 
REMARK    7  A    between atoms: O_9  and  C_28 
REMARK    8  A    between atoms: O_10  and  C_31 
REMARK    9  A    between atoms: C_18  and  C_22 
ROOT
ATOM      1  O   UNL d   1      19.038   7.451 -25.666  0.00  0.00    -0.306 OA
ATOM      2  O   UNL d   1      21.722   8.611 -24.997  0.00  0.00    -0.284 OA
ATOM      3  C   UNL d   1      20.185   7.995 -24.489  0.00  0.00     0.157 A 
ATOM      4  C   UNL d   1      19.290   7.609 -24.712  0.00  0.00     0.123 A 
ATOM      5  C   UNL d   1      20.828   8.224 -25.220  0.00  0.00     0.223 A 
ATOM      6  C   UNL d   1      20.575   8.066 -26.175  0.00  0.00     0.084 A 
ATOM      7  C   UNL d   1      19.681   7.679 -26.398  0.00  0.00     0.096 A 
ATOM      8  C   UNL d   1      21.255   8.309 -26.926  0.00  0.00     0.085 A 
ATOM      9  C   UNL d   1      19.403   7.509 -27.388  0.00  0.00     0.075 A 
ATOM     10  C   UNL d   1      20.999   8.147 -27.923  0.00  0.00     0.074 A 
ATOM     11  C   UNL d   1      20.067   7.744 -28.155  0.00  0.00     0.071 A 
ENDROOT
BRANCH   3  12
ATOM     12  O   UNL d   1      20.438   8.154 -23.534  0.00  0.00    -0.311 OA
BRANCH  12  13
ATOM     13  C   UNL d   1      21.117   7.567 -23.092  0.00  0.00     0.298 A 
ATOM     14  O   UNL d   1      21.345   6.679 -23.491  0.00  0.00    -0.351 OA
ATOM     15  C   UNL d   1      22.024   6.092 -23.050  0.00  0.00     0.152 A 
ATOM     16  C   UNL d   1      22.474   6.394 -22.209  0.00  0.00     0.178 A 
ATOM     17  C   UNL d   1      22.252   5.204 -23.449  0.00  0.00     0.042 C 
ATOM     18  C   UNL d   1      22.246   7.282 -21.811  0.00  0.00     0.183 A 
ATOM     19  C   UNL d   1      21.567   7.869 -22.252  0.00  0.00     0.205 A 
BRANCH  16  20
ATOM     20  O   UNL d   1      23.153   5.807 -21.768  0.00  0.00    -0.390 OA
ATOM     21  H   UNL d   1      23.646   6.059 -21.489  0.00  0.00     0.210 HD
ENDBRANCH  16  20
BRANCH  18  22
ATOM     22  O   UNL d   1      22.696   7.583 -20.970  0.00  0.00    -0.390 OA
ATOM     23  H   UNL d   1      22.920   7.165 -20.571  0.00  0.00     0.210 HD
ENDBRANCH  18  22
BRANCH  19  24
ATOM     24  O   UNL d   1      21.339   8.757 -21.853  0.00  0.00    -0.388 OA
ATOM     25  H   UNL d   1      20.749   8.949 -21.843  0.00  0.00     0.210 HD
ENDBRANCH  19  24
ENDBRANCH  12  13
ENDBRANCH   3  12
BRANCH   4  26
ATOM     26  C   UNL d   1      18.648   7.380 -23.980  0.00  0.00     0.001 A 
ATOM     27  C   UNL d   1      18.188   8.109 -23.473  0.00  0.00     0.017 A 
ATOM     28  C   UNL d   1      17.546   7.880 -22.741  0.00  0.00     0.037 A 
ATOM     29  C   UNL d   1      17.363   6.923 -22.517  0.00  0.00     0.065 A 
ATOM     30  C   UNL d   1      17.823   6.194 -23.025  0.00  0.00     0.037 A 
ATOM     31  C   UNL d   1      18.465   6.423 -23.756  0.00  0.00     0.017 A 
BRANCH  29  32
ATOM     32  O   UNL d   1      16.721   6.694 -21.786  0.00  0.00    -0.361 OA
ATOM     33  H   UNL d   1      16.927   6.610 -21.207  0.00  0.00     0.217 HD
ENDBRANCH  29  32
ENDBRANCH   4  26
BRANCH   8  34
ATOM     34  O   UNL d   1      22.147   8.695 -26.691  0.00  0.00    -0.360 OA
ATOM     35  H   UNL d   1      22.465   9.021 -27.113  0.00  0.00     0.217 HD
ENDBRANCH   8  34
BRANCH  11  36
ATOM     36  O   UNL d   1      19.811   7.585 -29.109  0.00  0.00    -0.361 OA
ATOM     37  H   UNL d   1      19.684   7.010 -29.304  0.00  0.00     0.217 HD
ENDBRANCH  11  36
TORSDOF 9
ENDMDL
MODEL 2
REMARK VINA RESULT:   -10.119     19.714     21.345
REMARK INTER + INTRA:          -0.731
REMARK INTER:                 -13.195
REMARK INTRA:                  12.464
REMARK UNBOUND:                12.938
REMARK  9 active torsions:
REMARK  status: ('A' for Active; 'I' for Inactive)
REMARK    1  A    between atoms: C_15  and  O_2 
REMARK    2  A    between atoms: O_2  and  C_17 
REMARK    3  A    between atoms: C_11  and  O_3 
REMARK    4  A    between atoms: C_12  and  O_4 
REMARK    5  A    between atoms: C_13  and  O_5 
REMARK    6  A    between atoms: O_8  and  C_23 
REMARK    7  A    between atoms: O_9  and  C_28 
REMARK    8  A    between atoms: O_10  and  C_31 
REMARK    9  A    between atoms: C_18  and  C_22 
ROOT
ATOM      1  O   UNL d   1      20.558  -3.547 -43.026  0.00  0.00    -0.306 OA
ATOM      2  O   UNL d   1      22.416  -3.889 -40.695  0.00  0.00    -0.284 OA
ATOM      3  C   UNL d   1      21.833  -2.941 -42.022  0.00  0.00     0.157 A 
ATOM      4  C   UNL d   1      21.213  -2.827 -42.799  0.00  0.00     0.123 A 
ATOM      5  C   UNL d   1      21.796  -3.775 -41.472  0.00  0.00     0.223 A 
ATOM      6  C   UNL d   1      21.141  -4.495 -41.698  0.00  0.00     0.084 A 
ATOM      7  C   UNL d   1      20.522  -4.382 -42.475  0.00  0.00     0.096 A 
ATOM      8  C   UNL d   1      21.115  -5.359 -41.116  0.00  0.00     0.085 A 
ATOM      9  C   UNL d   1      19.833  -5.123 -42.724  0.00  0.00     0.075 A 
ATOM     10  C   UNL d   1      20.434  -6.114 -41.346  0.00  0.00     0.074 A 
ATOM     11  C   UNL d   1      19.789  -5.995 -42.155  0.00  0.00     0.071 A 
ENDROOT
BRANCH   3  12
ATOM     12  O   UNL d   1      22.488  -2.220 -41.795  0.00  0.00    -0.311 OA
BRANCH  12  13
ATOM     13  C   UNL d   1      23.467  -2.377 -41.925  0.00  0.00     0.298 A 
ATOM     14  O   UNL d   1      23.785  -2.974 -42.661  0.00  0.00    -0.351 OA
ATOM     15  C   UNL d   1      24.765  -3.130 -42.790  0.00  0.00     0.152 A 
ATOM     16  C   UNL d   1      25.426  -2.689 -42.183  0.00  0.00     0.178 A 
ATOM     17  C   UNL d   1      25.083  -3.727 -43.526  0.00  0.00     0.042 C 
ATOM     18  C   UNL d   1      25.108  -2.092 -41.447  0.00  0.00     0.183 A 
ATOM     19  C   UNL d   1      24.128  -1.936 -41.317  0.00  0.00     0.205 A 
BRANCH  16  20
ATOM     20  O   UNL d   1      26.405  -2.846 -42.312  0.00  0.00    -0.390 OA
ATOM     21  H   UNL d   1      26.649  -3.402 -42.188  0.00  0.00     0.210 HD
ENDBRANCH  16  20
BRANCH  18  22
ATOM     22  O   UNL d   1      25.769  -1.651 -40.839  0.00  0.00    -0.390 OA
ATOM     23  H   UNL d   1      25.964  -1.075 -40.960  0.00  0.00     0.210 HD
ENDBRANCH  18  22
BRANCH  19  24
ATOM     24  O   UNL d   1      23.810  -1.339 -40.581  0.00  0.00    -0.388 OA
ATOM     25  H   UNL d   1      23.637  -0.757 -40.707  0.00  0.00     0.210 HD
ENDBRANCH  19  24
ENDBRANCH  12  13
ENDBRANCH   3  12
BRANCH   4  26
ATOM     26  C   UNL d   1      21.250  -1.993 -43.349  0.00  0.00     0.001 A 
ATOM     27  C   UNL d   1      21.661  -2.012 -44.260  0.00  0.00     0.017 A 
ATOM     28  C   UNL d   1      21.697  -1.178 -44.811  0.00  0.00     0.037 A 
ATOM     29  C   UNL d   1      21.322  -0.324 -44.450  0.00  0.00     0.065 A 
ATOM     30  C   UNL d   1      20.911  -0.305 -43.538  0.00  0.00     0.037 A 
ATOM     31  C   UNL d   1      20.875  -1.139 -42.988  0.00  0.00     0.017 A 
BRANCH  29  32
ATOM     32  O   UNL d   1      21.358   0.510 -45.000  0.00  0.00    -0.361 OA
ATOM     33  H   UNL d   1      21.641   1.015 -44.778  0.00  0.00     0.217 HD
ENDBRANCH  29  32
ENDBRANCH   4  26
BRANCH   8  34
ATOM     34  O   UNL d   1      21.739  -5.462 -40.342  0.00  0.00    -0.360 OA
ATOM     35  H   UNL d   1      21.871  -6.028 -40.123  0.00  0.00     0.217 HD
ENDBRANCH   8  34
BRANCH  11  36
ATOM     36  O   UNL d   1      19.133  -6.714 -42.385  0.00  0.00    -0.361 OA
ATOM     37  H   UNL d   1      19.322  -7.223 -42.683  0.00  0.00     0.217 HD
ENDBRANCH  11  36
TORSDOF 9
ENDMDL
MODEL 3
REMARK VINA RESULT:   -10.115     17.987     21.332
REMARK INTER + INTRA:          -0.725
REMARK INTER:                 -13.267
REMARK INTRA:                  12.543
REMARK UNBOUND:                12.938
REMARK  9 active torsions:
REMARK  status: ('A' for Active; 'I' for Inactive)
REMARK    1  A    between atoms: C_15  and  O_2 
REMARK    2  A    between atoms: O_2  and  C_17 
REMARK    3  A    between atoms: C_11  and  O_3 
REMARK    4  A    between atoms: C_12  and  O_4 
REMARK    5  A    between atoms: C_13  and  O_5 
REMARK    6  A    between atoms: O_8  and  C_23 
REMARK    7  A    between atoms: O_9  and  C_28 
REMARK    8  A    between atoms: O_10  and  C_31 
REMARK    9  A    between atoms: C_18  and  C_22 
ROOT
ATOM      1  O   UNL d   1      21.186  -5.657 -39.825  0.00  0.00    -0.306 OA
ATOM      2  O   UNL d   1      21.536  -2.749 -40.474  0.00  0.00    -0.284 OA
ATOM      3  C   UNL d   1      21.156  -4.363 -40.975  0.00  0.00     0.157 A 
ATOM      4  C   UNL d   1      21.039  -5.332 -40.759  0.00  0.00     0.123 A 
ATOM      5  C   UNL d   1      21.420  -3.718 -40.257  0.00  0.00     0.223 A 
ATOM      6  C   UNL d   1      21.566  -4.044 -39.323  0.00  0.00     0.084 A 
ATOM      7  C   UNL d   1      21.449  -5.013 -39.107  0.00  0.00     0.096 A 
ATOM      8  C   UNL d   1      21.840  -3.361 -38.586  0.00  0.00     0.085 A 
ATOM      9  C   UNL d   1      21.599  -5.366 -38.138  0.00  0.00     0.075 A 
ATOM     10  C   UNL d   1      21.995  -3.692 -37.610  0.00  0.00     0.074 A 
ATOM     11  C   UNL d   1      21.873  -4.702 -37.385  0.00  0.00     0.071 A 
ENDROOT
BRANCH   3  12
ATOM     12  O   UNL d   1      21.009  -4.038 -41.910  0.00  0.00    -0.311 OA
BRANCH  12  13
ATOM     13  C   UNL d   1      21.783  -3.713 -42.453  0.00  0.00     0.298 A 
ATOM     14  O   UNL d   1      22.719  -3.902 -42.154  0.00  0.00    -0.351 OA
ATOM     15  C   UNL d   1      23.493  -3.577 -42.698  0.00  0.00     0.152 A 
ATOM     16  C   UNL d   1      23.331  -3.063 -43.540  0.00  0.00     0.178 A 
ATOM     17  C   UNL d   1      24.428  -3.766 -42.399  0.00  0.00     0.042 C 
ATOM     18  C   UNL d   1      22.396  -2.873 -43.839  0.00  0.00     0.183 A 
ATOM     19  C   UNL d   1      21.622  -3.198 -43.295  0.00  0.00     0.205 A 
BRANCH  16  20
ATOM     20  O   UNL d   1      24.105  -2.738 -44.084  0.00  0.00    -0.390 OA
ATOM     21  H   UNL d   1      24.522  -2.355 -43.831  0.00  0.00     0.210 HD
ENDBRANCH  16  20
BRANCH  18  22
ATOM     22  O   UNL d   1      22.234  -2.359 -44.681  0.00  0.00    -0.390 OA
ATOM     23  H   UNL d   1      22.653  -2.374 -45.139  0.00  0.00     0.210 HD
ENDBRANCH  18  22
BRANCH  19  24
ATOM     24  O   UNL d   1      20.686  -3.009 -43.594  0.00  0.00    -0.388 OA
ATOM     25  H   UNL d   1      20.569  -2.518 -43.954  0.00  0.00     0.210 HD
ENDBRANCH  19  24
ENDBRANCH  12  13
ENDBRANCH   3  12
BRANCH   4  26
ATOM     26  C   UNL d   1      20.776  -5.976 -41.477  0.00  0.00     0.001 A 
ATOM     27  C   UNL d   1      21.446  -6.626 -41.836  0.00  0.00     0.017 A 
ATOM     28  C   UNL d   1      21.182  -7.270 -42.554  0.00  0.00     0.037 A 
ATOM     29  C   UNL d   1      20.249  -7.265 -42.913  0.00  0.00     0.065 A 
ATOM     30  C   UNL d   1      19.579  -6.615 -42.554  0.00  0.00     0.037 A 
ATOM     31  C   UNL d   1      19.842  -5.971 -41.836  0.00  0.00     0.017 A 
BRANCH  29  32
ATOM     32  O   UNL d   1      19.985  -7.909 -43.631  0.00  0.00    -0.361 OA
ATOM     33  H   UNL d   1      19.848  -8.496 -43.486  0.00  0.00     0.217 HD
ENDBRANCH  29  32
ENDBRANCH   4  26
BRANCH   8  34
ATOM     34  O   UNL d   1      21.954  -2.394 -38.813  0.00  0.00    -0.360 OA
ATOM     35  H   UNL d   1      22.123  -1.989 -38.373  0.00  0.00     0.217 HD
ENDBRANCH   8  34
BRANCH  11  36
ATOM     36  O   UNL d   1      22.019  -5.030 -36.451  0.00  0.00    -0.361 OA
ATOM     37  H   UNL d   1      22.473  -4.788 -36.105  0.00  0.00     0.217 HD
ENDBRANCH  11  36
TORSDOF 9
ENDMDL
MODEL 4
REMARK VINA RESULT:   -10.060      1.325      3.901
REMARK INTER + INTRA:          -0.650
REMARK INTER:                 -13.168
REMARK INTRA:                  12.518
REMARK UNBOUND:                12.938
REMARK  9 active torsions:
REMARK  status: ('A' for Active; 'I' for Inactive)
REMARK    1  A    between atoms: C_15  and  O_2 
REMARK    2  A    between atoms: O_2  and  C_17 
REMARK    3  A    between atoms: C_11  and  O_3 
REMARK    4  A    between atoms: C_12  and  O_4 
REMARK    5  A    between atoms: C_13  and  O_5 
REMARK    6  A    between atoms: O_8  and  C_23 
REMARK    7  A    between atoms: O_9  and  C_28 
REMARK    8  A    between atoms: O_10  and  C_31 
REMARK    9  A    between atoms: C_18  and  C_22 
ROOT
ATOM      1  O   UNL d   1      22.041   8.074 -24.807  0.00  0.00    -0.306 OA
ATOM      2  O   UNL d   1      19.193   7.400 -25.465  0.00  0.00    -0.284 OA
ATOM      3  C   UNL d   1      20.621   7.123 -24.525  0.00  0.00     0.157 A 
ATOM      4  C   UNL d   1      21.571   7.348 -24.306  0.00  0.00     0.123 A 
ATOM      5  C   UNL d   1      20.142   7.624 -25.246  0.00  0.00     0.223 A 
ATOM      6  C   UNL d   1      20.613   8.350 -25.747  0.00  0.00     0.084 A 
ATOM      7  C   UNL d   1      21.562   8.575 -25.528  0.00  0.00     0.096 A 
ATOM      8  C   UNL d   1      20.101   8.864 -26.495  0.00  0.00     0.085 A 
ATOM      9  C   UNL d   1      22.066   9.329 -26.042  0.00  0.00     0.075 A 
ATOM     10  C   UNL d   1      20.585   9.622 -27.022  0.00  0.00     0.074 A 
ATOM     11  C   UNL d   1      21.574   9.856 -26.794  0.00  0.00     0.071 A 
ENDROOT
BRANCH   3  12
ATOM     12  O   UNL d   1      20.151   6.397 -24.023  0.00  0.00    -0.311 OA
BRANCH  12  13
ATOM     13  C   UNL d   1      19.402   6.624 -23.401  0.00  0.00     0.298 A 
ATOM     14  O   UNL d   1      19.412   7.490 -22.901  0.00  0.00    -0.351 OA
ATOM     15  C   UNL d   1      18.663   7.717 -22.278  0.00  0.00     0.152 A 
ATOM     16  C   UNL d   1      17.904   7.078 -22.156  0.00  0.00     0.178 A 
ATOM     17  C   UNL d   1      18.673   8.583 -21.779  0.00  0.00     0.042 C 
ATOM     18  C   UNL d   1      17.894   6.212 -22.656  0.00  0.00     0.183 A 
ATOM     19  C   UNL d   1      18.643   5.985 -23.278  0.00  0.00     0.205 A 
BRANCH  16  20
ATOM     20  O   UNL d   1      17.155   7.304 -21.533  0.00  0.00    -0.390 OA
ATOM     21  H   UNL d   1      16.695   7.675 -21.723  0.00  0.00     0.210 HD
ENDBRANCH  16  20
BRANCH  18  22
ATOM     22  O   UNL d   1      17.135   5.572 -22.533  0.00  0.00    -0.390 OA
ATOM     23  H   UNL d   1      16.782   5.603 -22.023  0.00  0.00     0.210 HD
ENDBRANCH  18  22
BRANCH  19  24
ATOM     24  O   UNL d   1      18.632   5.119 -23.778  0.00  0.00    -0.388 OA
ATOM     25  H   UNL d   1      18.506   5.113 -24.385  0.00  0.00     0.210 HD
ENDBRANCH  19  24
ENDBRANCH  12  13
ENDBRANCH   3  12
BRANCH   4  26
ATOM     26  C   UNL d   1      22.050   6.847 -23.585  0.00  0.00     0.001 A 
ATOM     27  C   UNL d   1      22.178   7.265 -22.686  0.00  0.00     0.017 A 
ATOM     28  C   UNL d   1      22.657   6.764 -21.965  0.00  0.00     0.037 A 
ATOM     29  C   UNL d   1      23.007   5.844 -22.144  0.00  0.00     0.065 A 
ATOM     30  C   UNL d   1      22.879   5.426 -23.043  0.00  0.00     0.037 A 
ATOM     31  C   UNL d   1      22.400   5.928 -23.764  0.00  0.00     0.017 A 
BRANCH  29  32
ATOM     32  O   UNL d   1      23.486   5.343 -21.423  0.00  0.00    -0.361 OA
ATOM     33  H   UNL d   1      24.083   5.192 -21.495  0.00  0.00     0.217 HD
ENDBRANCH  29  32
ENDBRANCH   4  26
BRANCH   8  34
ATOM     34  O   UNL d   1      19.152   8.631 -26.706  0.00  0.00    -0.360 OA
ATOM     35  H   UNL d   1      19.026   8.172 -27.105  0.00  0.00     0.217 HD
ENDBRANCH   8  34
BRANCH  11  36
ATOM     36  O   UNL d   1      22.047  10.581 -27.294  0.00  0.00    -0.361 OA
ATOM     37  H   UNL d   1      22.347  11.026 -26.983  0.00  0.00     0.217 HD
ENDBRANCH  11  36
TORSDOF 9
ENDMDL
MODEL 5
REMARK VINA RESULT:    -9.875     19.732     21.857
REMARK INTER + INTRA:          -0.401
REMARK INTER:                 -12.855
REMARK INTRA:                  12.455
REMARK UNBOUND:                12.938
REMARK  9 active torsions:
REMARK  status: ('A' for Active; 'I' for Inactive)
REMARK    1  A    between atoms: C_15  and  O_2 
REMARK    2  A    between atoms: O_2  and  C_17 
REMARK    3  A    between atoms: C_11  and  O_3 
REMARK    4  A    between atoms: C_12  and  O_4 
REMARK    5  A    between atoms: C_13  and  O_5 
REMARK    6  A    between atoms: O_8  and  C_23 
REMARK    7  A    between atoms: O_9  and  C_28 
REMARK    8  A    between atoms: O_10  and  C_31 
REMARK    9  A    between atoms: C_18  and  C_22 
ROOT
ATOM      1  O   UNL d   1      22.302  -4.591 -42.015  0.00  0.00    -0.306 OA
ATOM      2  O   UNL d   1      19.878  -2.996 -42.777  0.00  0.00    -0.284 OA
ATOM      3  C   UNL d   1      21.544  -3.062 -42.306  0.00  0.00     0.157 A 
ATOM      4  C   UNL d   1      22.352  -3.593 -42.052  0.00  0.00     0.123 A 
ATOM      5  C   UNL d   1      20.686  -3.528 -42.523  0.00  0.00     0.223 A 
ATOM      6  C   UNL d   1      20.637  -4.526 -42.486  0.00  0.00     0.084 A 
ATOM      7  C   UNL d   1      21.445  -5.058 -42.232  0.00  0.00     0.096 A 
ATOM      8  C   UNL d   1      19.737  -4.998 -42.714  0.00  0.00     0.085 A 
ATOM      9  C   UNL d   1      21.408  -6.098 -42.189  0.00  0.00     0.075 A 
ATOM     10  C   UNL d   1      19.677  -6.038 -42.678  0.00  0.00     0.074 A 
ATOM     11  C   UNL d   1      20.519  -6.592 -42.413  0.00  0.00     0.071 A 
ENDROOT
BRANCH   3  12
ATOM     12  O   UNL d   1      21.593  -2.064 -42.343  0.00  0.00    -0.311 OA
BRANCH  12  13
ATOM     13  C   UNL d   1      21.540  -1.593 -43.224  0.00  0.00     0.298 A 
ATOM     14  O   UNL d   1      21.863  -2.048 -44.054  0.00  0.00    -0.351 OA
ATOM     15  C   UNL d   1      21.810  -1.577 -44.935  0.00  0.00     0.152 A 
ATOM     16  C   UNL d   1      21.435  -0.651 -44.985  0.00  0.00     0.178 A 
ATOM     17  C   UNL d   1      22.132  -2.032 -45.765  0.00  0.00     0.042 C 
ATOM     18  C   UNL d   1      21.113  -0.196 -44.155  0.00  0.00     0.183 A 
ATOM     19  C   UNL d   1      21.165  -0.667 -43.274  0.00  0.00     0.205 A 
BRANCH  16  20
ATOM     20  O   UNL d   1      21.382  -0.180 -45.866  0.00  0.00    -0.390 OA
ATOM     21  H   UNL d   1      21.295   0.433 -45.884  0.00  0.00     0.210 HD
ENDBRANCH  16  20
BRANCH  18  22
ATOM     22  O   UNL d   1      20.738   0.729 -44.205  0.00  0.00    -0.390 OA
ATOM     23  H   UNL d   1      20.965   1.134 -44.616  0.00  0.00     0.210 HD
ENDBRANCH  18  22
BRANCH  19  24
ATOM     24  O   UNL d   1      20.843  -0.212 -42.444  0.00  0.00    -0.388 OA
ATOM     25  H   UNL d   1      20.236  -0.127 -42.353  0.00  0.00     0.210 HD
ENDBRANCH  19  24
ENDBRANCH  12  13
ENDBRANCH   3  12
BRANCH   4  26
ATOM     26  C   UNL d   1      23.209  -3.127 -41.835  0.00  0.00     0.001 A 
ATOM     27  C   UNL d   1      23.281  -2.573 -41.006  0.00  0.00     0.017 A 
ATOM     28  C   UNL d   1      24.139  -2.106 -40.789  0.00  0.00     0.037 A 
ATOM     29  C   UNL d   1      24.924  -2.194 -41.402  0.00  0.00     0.065 A 
ATOM     30  C   UNL d   1      24.853  -2.748 -42.231  0.00  0.00     0.037 A 
ATOM     31  C   UNL d   1      23.995  -3.215 -42.448  0.00  0.00     0.017 A 
BRANCH  29  32
ATOM     32  O   UNL d   1      25.782  -1.728 -41.185  0.00  0.00    -0.361 OA
ATOM     33  H   UNL d   1      26.213  -2.014 -40.842  0.00  0.00     0.217 HD
ENDBRANCH  29  32
ENDBRANCH   4  26
BRANCH   8  34
ATOM     34  O   UNL d   1      18.935  -4.457 -42.967  0.00  0.00    -0.360 OA
ATOM     35  H   UNL d   1      18.820  -4.332 -43.564  0.00  0.00     0.217 HD
ENDBRANCH   8  34
BRANCH  11  36
ATOM     36  O   UNL d   1      20.473  -7.590 -42.375  0.00  0.00    -0.361 OA
ATOM     37  H   UNL d   1      20.631  -7.888 -41.854  0.00  0.00     0.217 HD
ENDBRANCH  11  36
TORSDOF 9
ENDMDL
