MODEL 1
REMARK VINA RESULT:   -10.386      0.000      0.000
REMARK INTER + INTRA:         -10.487
REMARK INTER:                 -11.509
REMARK INTRA:                   1.022
REMARK UNBOUND:                 1.113
REMARK  3 active torsions:
REMARK  status: ('A' for Active; 'I' for Inactive)
REMARK    1  A    between atoms: O_2  and  C_10 
REMARK    2  A    between atoms: O_4  and  C_13 
REMARK    3  A    between atoms: C_7  and  C_9 
ROOT
ATOM      1  O   UNL d   1       6.091   5.426  18.055  0.00  0.00    -0.309 OA
ATOM      2  O   UNL d   1       3.435   6.797  17.808  0.00  0.00    -0.287 OA
ATOM      3  C   UNL d   1       4.438   5.592  18.543  0.00  0.00     0.081 A 
ATOM      4  C   UNL d   1       5.323   5.135  18.626  0.00  0.00     0.095 A 
ATOM      5  C   UNL d   1       5.974   6.174  17.402  0.00  0.00     0.090 A 
ATOM      6  C   UNL d   1       4.320   6.340  17.890  0.00  0.00     0.190 A 
ATOM      7  C   UNL d   1       3.629   5.300  19.131  0.00  0.00     0.085 A 
ATOM      8  C   UNL d   1       5.088   6.631  17.319  0.00  0.00     0.094 A 
ATOM      9  C   UNL d   1       5.462   4.354  19.301  0.00  0.00     0.075 A 
ATOM     10  C   UNL d   1       4.666   4.046  19.899  0.00  0.00     0.071 A 
ATOM     11  C   UNL d   1       3.745   4.522  19.813  0.00  0.00     0.074 A 
ENDROOT
BRANCH   5  12
ATOM     12  C   UNL d   1       6.742   6.465  16.831  0.00  0.00    -0.002 A 
ATOM     13  C   UNL d   1       7.477   7.016  17.225  0.00  0.00     0.014 A 
ATOM     14  C   UNL d   1       8.245   7.307  16.654  0.00  0.00     0.001 A 
ATOM     15  C   UNL d   1       8.277   7.046  15.689  0.00  0.00     0.000 A 
ATOM     16  C   UNL d   1       7.542   6.495  15.295  0.00  0.00     0.001 A 
ATOM     17  C   UNL d   1       6.774   6.204  15.866  0.00  0.00     0.014 A 
ENDBRANCH   5  12
BRANCH   7  18
ATOM     18  O   UNL d   1       2.748   5.765  19.040  0.00  0.00    -0.360 OA
ATOM     19  H   UNL d   1       2.223   5.438  19.061  0.00  0.00     0.217 HD
ENDBRANCH   7  18
BRANCH  10  20
ATOM     20  O   UNL d   1       4.788   3.297  20.551  0.00  0.00    -0.361 OA
ATOM     21  H   UNL d   1       5.029   3.410  21.111  0.00  0.00     0.217 HD
ENDBRANCH  10  20
TORSDOF 3
ENDMDL
MODEL 2
REMARK VINA RESULT:   -10.267      1.777      4.643
REMARK INTER + INTRA:         -10.354
REMARK INTER:                 -11.497
REMARK INTRA:                   1.143
REMARK UNBOUND:                 1.113
REMARK  3 active torsions:
REMARK  status: ('A' for Active; 'I' for Inactive)
REMARK    1  A    between atoms: O_2  and  C_10 
REMARK    2  A    between atoms: O_4  and  C_13 
REMARK    3  A    between atoms: C_7  and  C_9 
ROOT
ATOM      1  O   UNL d   1       6.186   6.142  17.307  0.00  0.00    -0.309 OA
ATOM      2  O   UNL d   1       5.059   5.668  14.568  0.00  0.00    -0.287 OA
ATOM      3  C   UNL d   1       6.390   6.100  15.588  0.00  0.00     0.081 A 
ATOM      4  C   UNL d   1       6.766   6.258  16.501  0.00  0.00     0.095 A 
ATOM      5  C   UNL d   1       5.231   5.868  17.200  0.00  0.00     0.090 A 
ATOM      6  C   UNL d   1       5.435   5.826  15.481  0.00  0.00     0.190 A 
ATOM      7  C   UNL d   1       6.982   6.217  14.739  0.00  0.00     0.085 A 
ATOM      8  C   UNL d   1       4.855   5.710  16.287  0.00  0.00     0.094 A 
ATOM      9  C   UNL d   1       7.760   6.545  16.628  0.00  0.00     0.075 A 
ATOM     10  C   UNL d   1       8.370   6.668  15.793  0.00  0.00     0.071 A 
ATOM     11  C   UNL d   1       7.979   6.503  14.842  0.00  0.00     0.074 A 
ENDROOT
BRANCH   5  12
ATOM     12  C   UNL d   1       4.651   5.752  18.007  0.00  0.00    -0.002 A 
ATOM     13  C   UNL d   1       4.947   5.158  18.755  0.00  0.00     0.014 A 
ATOM     14  C   UNL d   1       4.368   5.042  19.561  0.00  0.00     0.001 A 
ATOM     15  C   UNL d   1       3.491   5.519  19.619  0.00  0.00     0.000 A 
ATOM     16  C   UNL d   1       3.194   6.113  18.871  0.00  0.00     0.001 A 
ATOM     17  C   UNL d   1       3.774   6.229  18.065  0.00  0.00     0.014 A 
ENDBRANCH   5  12
BRANCH   7  18
ATOM     18  O   UNL d   1       6.596   6.057  13.831  0.00  0.00    -0.360 OA
ATOM     19  H   UNL d   1       6.598   5.486  13.590  0.00  0.00     0.217 HD
ENDBRANCH   7  18
BRANCH  10  20
ATOM     20  O   UNL d   1       9.325   6.942  15.904  0.00  0.00    -0.361 OA
ATOM     21  H   UNL d   1       9.777   6.597  15.657  0.00  0.00     0.217 HD
ENDBRANCH  10  20
TORSDOF 3
ENDMDL
MODEL 3
REMARK VINA RESULT:   -10.257      1.581      4.681
REMARK INTER + INTRA:         -10.343
REMARK INTER:                 -11.352
REMARK INTRA:                   1.009
REMARK UNBOUND:                 1.113
REMARK  3 active torsions:
REMARK  status: ('A' for Active; 'I' for Inactive)
REMARK    1  A    between atoms: O_2  and  C_10 
REMARK    2  A    between atoms: O_4  and  C_13 
REMARK    3  A    between atoms: C_7  and  C_9 
ROOT
ATOM      1  O   UNL d   1       5.005   5.441  17.250  0.00  0.00    -0.309 OA
ATOM      2  O   UNL d   1       7.642   6.784  17.740  0.00  0.00    -0.287 OA
ATOM      3  C   UNL d   1       6.424   6.226  16.642  0.00  0.00     0.081 A 
ATOM      4  C   UNL d   1       5.545   5.778  16.479  0.00  0.00     0.095 A 
ATOM      5  C   UNL d   1       5.344   5.551  18.184  0.00  0.00     0.090 A 
ATOM      6  C   UNL d   1       6.763   6.336  17.576  0.00  0.00     0.190 A 
ATOM      7  C   UNL d   1       6.998   6.582  15.849  0.00  0.00     0.085 A 
ATOM      8  C   UNL d   1       6.223   5.999  18.347  0.00  0.00     0.094 A 
ATOM      9  C   UNL d   1       5.179   5.655  15.511  0.00  0.00     0.075 A 
ATOM     10  C   UNL d   1       5.736   6.004  14.703  0.00  0.00     0.071 A 
ATOM     11  C   UNL d   1       6.651   6.470  14.873  0.00  0.00     0.074 A 
ENDROOT
BRANCH   5  12
ATOM     12  C   UNL d   1       4.804   5.214  18.955  0.00  0.00    -0.002 A 
ATOM     13  C   UNL d   1       5.027   4.334  19.375  0.00  0.00     0.014 A 
ATOM     14  C   UNL d   1       4.486   3.997  20.146  0.00  0.00     0.001 A 
ATOM     15  C   UNL d   1       3.723   4.539  20.497  0.00  0.00     0.000 A 
ATOM     16  C   UNL d   1       3.500   5.419  20.077  0.00  0.00     0.001 A 
ATOM     17  C   UNL d   1       4.040   5.756  19.306  0.00  0.00     0.014 A 
ENDBRANCH   5  12
BRANCH   7  18
ATOM     18  O   UNL d   1       7.875   7.028  16.024  0.00  0.00    -0.360 OA
ATOM     19  H   UNL d   1       8.401   6.767  15.826  0.00  0.00     0.217 HD
ENDBRANCH   7  18
BRANCH  10  20
ATOM     20  O   UNL d   1       5.394   5.892  13.770  0.00  0.00    -0.361 OA
ATOM     21  H   UNL d   1       5.720   6.113  13.292  0.00  0.00     0.217 HD
ENDBRANCH  10  20
TORSDOF 3
ENDMDL
MODEL 4
REMARK VINA RESULT:    -9.781      8.985     10.817
REMARK INTER + INTRA:          -9.811
REMARK INTER:                 -10.830
REMARK INTRA:                   1.018
REMARK UNBOUND:                 1.113
REMARK  3 active torsions:
REMARK  status: ('A' for Active; 'I' for Inactive)
REMARK    1  A    between atoms: O_2  and  C_10 
REMARK    2  A    between atoms: O_4  and  C_13 
REMARK    3  A    between atoms: C_7  and  C_9 
ROOT
ATOM      1  O   UNL d   1      14.713   5.093  21.957  0.00  0.00    -0.309 OA
ATOM      2  O   UNL d   1      14.581   8.079  21.695  0.00  0.00    -0.287 OA
ATOM      3  C   UNL d   1      15.484   6.604  21.608  0.00  0.00     0.081 A 
ATOM      4  C   UNL d   1      15.528   5.608  21.695  0.00  0.00     0.095 A 
ATOM      5  C   UNL d   1      13.853   5.573  22.132  0.00  0.00     0.090 A 
ATOM      6  C   UNL d   1      14.625   7.083  21.783  0.00  0.00     0.190 A 
ATOM      7  C   UNL d   1      16.326   7.154  21.335  0.00  0.00     0.085 A 
ATOM      8  C   UNL d   1      13.809   6.568  22.045  0.00  0.00     0.094 A 
ATOM      9  C   UNL d   1      16.417   5.094  21.516  0.00  0.00     0.075 A 
ATOM     10  C   UNL d   1      17.271   5.625  21.243  0.00  0.00     0.071 A 
ATOM     11  C   UNL d   1      17.225   6.661  21.152  0.00  0.00     0.074 A 
ENDROOT
BRANCH   5  12
ATOM     12  C   UNL d   1      13.037   5.057  22.394  0.00  0.00    -0.002 A 
ATOM     13  C   UNL d   1      12.745   5.036  23.350  0.00  0.00     0.014 A 
ATOM     14  C   UNL d   1      11.929   4.521  23.612  0.00  0.00     0.001 A 
ATOM     15  C   UNL d   1      11.406   4.026  22.919  0.00  0.00     0.000 A 
ATOM     16  C   UNL d   1      11.698   4.047  21.962  0.00  0.00     0.001 A 
ATOM     17  C   UNL d   1      12.514   4.563  21.700  0.00  0.00     0.014 A 
ENDBRANCH   5  12
BRANCH   7  18
ATOM     18  O   UNL d   1      16.270   8.148  21.251  0.00  0.00    -0.360 OA
ATOM     19  H   UNL d   1      16.757   8.469  21.041  0.00  0.00     0.217 HD
ENDBRANCH   7  18
BRANCH  10  20
ATOM     20  O   UNL d   1      18.129   5.141  21.068  0.00  0.00    -0.361 OA
ATOM     21  H   UNL d   1      18.652   5.461  20.980  0.00  0.00     0.217 HD
ENDBRANCH  10  20
TORSDOF 3
ENDMDL
MODEL 5
REMARK VINA RESULT:    -9.690     46.385     47.780
REMARK INTER + INTRA:          -9.709
REMARK INTER:                 -10.756
REMARK INTRA:                   1.047
REMARK UNBOUND:                 1.113
REMARK  3 active torsions:
REMARK  status: ('A' for Active; 'I' for Inactive)
REMARK    1  A    between atoms: O_2  and  C_10 
REMARK    2  A    between atoms: O_4  and  C_13 
REMARK    3  A    between atoms: C_7  and  C_9 
ROOT
ATOM      1  O   UNL d   1      22.206  -1.878 -26.588  0.00  0.00    -0.309 OA
ATOM      2  O   UNL d   1      22.172   0.330 -24.558  0.00  0.00    -0.287 OA
ATOM      3  C   UNL d   1      22.837  -1.158 -25.145  0.00  0.00     0.081 A 
ATOM      4  C   UNL d   1      22.848  -1.894 -25.822  0.00  0.00     0.095 A 
ATOM      5  C   UNL d   1      21.552  -1.127 -26.678  0.00  0.00     0.090 A 
ATOM      6  C   UNL d   1      22.183  -0.406 -25.235  0.00  0.00     0.190 A 
ATOM      7  C   UNL d   1      23.500  -1.161 -24.342  0.00  0.00     0.085 A 
ATOM      8  C   UNL d   1      21.541  -0.391 -26.001  0.00  0.00     0.094 A 
ATOM      9  C   UNL d   1      23.523  -2.684 -25.742  0.00  0.00     0.075 A 
ATOM     10  C   UNL d   1      24.195  -2.707 -24.947  0.00  0.00     0.071 A 
ATOM     11  C   UNL d   1      24.183  -1.940 -24.242  0.00  0.00     0.074 A 
ENDROOT
BRANCH   5  12
ATOM     12  C   UNL d   1      20.910  -1.111 -27.444  0.00  0.00    -0.002 A 
ATOM     13  C   UNL d   1      21.243  -0.949 -28.373  0.00  0.00     0.014 A 
ATOM     14  C   UNL d   1      20.601  -0.933 -29.139  0.00  0.00     0.001 A 
ATOM     15  C   UNL d   1      19.625  -1.081 -28.977  0.00  0.00     0.000 A 
ATOM     16  C   UNL d   1      19.292  -1.243 -28.048  0.00  0.00     0.001 A 
ATOM     17  C   UNL d   1      19.934  -1.259 -27.282  0.00  0.00     0.014 A 
ENDBRANCH   5  12
BRANCH   7  18
ATOM     18  O   UNL d   1      23.480  -0.419 -23.671  0.00  0.00    -0.360 OA
ATOM     19  H   UNL d   1      23.857   0.068 -23.737  0.00  0.00     0.217 HD
ENDBRANCH   7  18
BRANCH  10  20
ATOM     20  O   UNL d   1      24.847  -3.460 -24.861  0.00  0.00    -0.361 OA
ATOM     21  H   UNL d   1      24.767  -3.978 -25.193  0.00  0.00     0.217 HD
ENDBRANCH  10  20
TORSDOF 3
ENDMDL
