MODEL 1
REMARK VINA RESULT:    -6.280      0.000      0.000
REMARK INTER + INTRA:          -6.280
REMARK INTER:                  -6.280
REMARK INTRA:                   0.000
REMARK UNBOUND:                 0.000
REMARK  0 active torsions:
REMARK  status: ('A' for Active; 'I' for Inactive)
ROOT
ATOM      1  O   UNL d   1     -23.300  12.479  16.188  0.00  0.00    -0.265 OA
ATOM      2  O   UNL d   1     -23.840  10.923  13.141  0.00  0.00    -0.246 OA
ATOM      3  N   UNL d   1     -22.227  11.109  13.745  0.00  0.00    -0.286 N 
ATOM      4  N   UNL d   1     -21.185  12.129  15.846  0.00  0.00    -0.338 N 
ATOM      5  N   UNL d   1     -23.570  11.701  14.665  0.00  0.00    -0.269 N 
ATOM      6  N   UNL d   1     -20.609  11.394  14.535  0.00  0.00    -0.223 NA
ATOM      7  C   UNL d   1     -21.957  11.888  15.268  0.00  0.00     0.151 A 
ATOM      8  C   UNL d   1     -21.599  11.431  14.454  0.00  0.00     0.167 A 
ATOM      9  C   UNL d   1     -22.942  12.023  15.374  0.00  0.00     0.282 A 
ATOM     10  C   UNL d   1     -23.212  11.244  13.850  0.00  0.00     0.332 A 
ATOM     11  C   UNL d   1     -20.354  11.824  15.394  0.00  0.00     0.212 A 
ATOM     12  C   UNL d   1     -21.869  10.653  12.930  0.00  0.00     0.163 C 
ATOM     13  C   UNL d   1     -21.235  12.596  16.728  0.00  0.00     0.157 C 
ATOM     14  C   UNL d   1     -24.555  11.836  14.770  0.00  0.00     0.164 C 
ENDROOT
TORSDOF 0
ENDMDL
MODEL 2
REMARK VINA RESULT:    -6.159      1.092      2.682
REMARK INTER + INTRA:          -6.159
REMARK INTER:                  -6.159
REMARK INTRA:                   0.000
REMARK UNBOUND:                 0.000
REMARK  0 active torsions:
REMARK  status: ('A' for Active; 'I' for Inactive)
ROOT
ATOM      1  O   UNL d   1     -24.054  12.268  15.026  0.00  0.00    -0.265 OA
ATOM      2  O   UNL d   1     -20.965  12.738  16.521  0.00  0.00    -0.246 OA
ATOM      3  N   UNL d   1     -21.091  11.799  15.072  0.00  0.00    -0.286 N 
ATOM      4  N   UNL d   1     -23.006  11.098  13.528  0.00  0.00    -0.338 N 
ATOM      5  N   UNL d   1     -22.510  12.503  15.774  0.00  0.00    -0.269 N 
ATOM      6  N   UNL d   1     -21.416  10.846  13.553  0.00  0.00    -0.223 NA
ATOM      7  C   UNL d   1     -22.636  11.564  14.324  0.00  0.00     0.151 A 
ATOM      8  C   UNL d   1     -21.649  11.407  14.340  0.00  0.00     0.167 A 
ATOM      9  C   UNL d   1     -23.067  12.112  15.042  0.00  0.00     0.282 A 
ATOM     10  C   UNL d   1     -21.522  12.347  15.789  0.00  0.00     0.332 A 
ATOM     11  C   UNL d   1     -22.254  10.655  13.052  0.00  0.00     0.212 A 
ATOM     12  C   UNL d   1     -20.104  11.642  15.087  0.00  0.00     0.163 C 
ATOM     13  C   UNL d   1     -23.967  11.078  13.253  0.00  0.00     0.157 C 
ATOM     14  C   UNL d   1     -22.940  13.051  16.491  0.00  0.00     0.164 C 
ENDROOT
TORSDOF 0
ENDMDL
MODEL 3
REMARK VINA RESULT:    -5.941     32.931     33.747
REMARK INTER + INTRA:          -5.941
REMARK INTER:                  -5.941
REMARK INTRA:                   0.000
REMARK UNBOUND:                 0.000
REMARK  0 active torsions:
REMARK  status: ('A' for Active; 'I' for Inactive)
ROOT
ATOM      1  O   UNL d   1     -19.809 -22.248  16.562  0.00  0.00    -0.265 OA
ATOM      2  O   UNL d   1     -19.884 -19.630  14.295  0.00  0.00    -0.246 OA
ATOM      3  N   UNL d   1     -19.378 -21.204  13.782  0.00  0.00    -0.286 N 
ATOM      4  N   UNL d   1     -19.108 -23.480  14.918  0.00  0.00    -0.338 N 
ATOM      5  N   UNL d   1     -19.847 -20.939  15.428  0.00  0.00    -0.269 N 
ATOM      6  N   UNL d   1     -18.876 -22.920  13.427  0.00  0.00    -0.223 NA
ATOM      7  C   UNL d   1     -19.340 -22.514  14.916  0.00  0.00     0.151 A 
ATOM      8  C   UNL d   1     -19.197 -22.166  13.989  0.00  0.00     0.167 A 
ATOM      9  C   UNL d   1     -19.666 -21.900  15.635  0.00  0.00     0.282 A 
ATOM     10  C   UNL d   1     -19.703 -20.591  14.502  0.00  0.00     0.332 A 
ATOM     11  C   UNL d   1     -18.821 -23.731  13.999  0.00  0.00     0.212 A 
ATOM     12  C   UNL d   1     -19.234 -20.857  12.856  0.00  0.00     0.163 C 
ATOM     13  C   UNL d   1     -19.153 -24.093  15.706  0.00  0.00     0.157 C 
ATOM     14  C   UNL d   1     -20.172 -20.325  16.148  0.00  0.00     0.164 C 
ENDROOT
TORSDOF 0
ENDMDL
MODEL 4
REMARK VINA RESULT:    -5.419     13.750     15.203
REMARK INTER + INTRA:          -5.419
REMARK INTER:                  -5.419
REMARK INTRA:                   0.000
REMARK UNBOUND:                 0.000
REMARK  0 active torsions:
REMARK  status: ('A' for Active; 'I' for Inactive)
ROOT
ATOM      1  O   UNL d   1     -12.133   1.647   6.151  0.00  0.00    -0.265 OA
ATOM      2  O   UNL d   1     -14.764   2.536   8.222  0.00  0.00    -0.246 OA
ATOM      3  N   UNL d   1     -13.210   3.273   8.430  0.00  0.00    -0.286 N 
ATOM      4  N   UNL d   1     -10.937   3.066   7.276  0.00  0.00    -0.338 N 
ATOM      5  N   UNL d   1     -13.449   2.091   7.187  0.00  0.00    -0.269 N 
ATOM      6  N   UNL d   1     -11.515   3.939   8.500  0.00  0.00    -0.223 NA
ATOM      7  C   UNL d   1     -11.895   2.829   7.395  0.00  0.00     0.151 A 
ATOM      8  C   UNL d   1     -12.254   3.371   8.154  0.00  0.00     0.167 A 
ATOM      9  C   UNL d   1     -12.492   2.189   6.911  0.00  0.00     0.282 A 
ATOM     10  C   UNL d   1     -13.808   2.633   7.947  0.00  0.00     0.332 A 
ATOM     11  C   UNL d   1     -10.703   3.751   7.958  0.00  0.00     0.212 A 
ATOM     12  C   UNL d   1     -13.569   3.815   9.190  0.00  0.00     0.163 C 
ATOM     13  C   UNL d   1     -10.317   2.684   6.592  0.00  0.00     0.157 C 
ATOM     14  C   UNL d   1     -14.046   1.452   6.703  0.00  0.00     0.164 C 
ENDROOT
TORSDOF 0
ENDMDL
MODEL 5
REMARK VINA RESULT:    -5.345      2.136      3.563
REMARK INTER + INTRA:          -5.345
REMARK INTER:                  -5.345
REMARK INTRA:                   0.000
REMARK UNBOUND:                 0.000
REMARK  0 active torsions:
REMARK  status: ('A' for Active; 'I' for Inactive)
ROOT
ATOM      1  O   UNL d   1     -23.291  14.815  13.451  0.00  0.00    -0.265 OA
ATOM      2  O   UNL d   1     -22.091  13.959  16.586  0.00  0.00    -0.246 OA
ATOM      3  N   UNL d   1     -22.858  12.762  15.596  0.00  0.00    -0.286 N 
ATOM      4  N   UNL d   1     -23.921  12.746  13.269  0.00  0.00    -0.338 N 
ATOM      5  N   UNL d   1     -22.691  14.387  15.019  0.00  0.00    -0.269 N 
ATOM      6  N   UNL d   1     -23.688  11.644  14.420  0.00  0.00    -0.223 NA
ATOM      7  C   UNL d   1     -23.458  13.191  14.028  0.00  0.00     0.151 A 
ATOM      8  C   UNL d   1     -23.314  12.506  14.743  0.00  0.00     0.167 A 
ATOM      9  C   UNL d   1     -23.147  14.131  14.166  0.00  0.00     0.282 A 
ATOM     10  C   UNL d   1     -22.547  13.703  15.734  0.00  0.00     0.332 A 
ATOM     11  C   UNL d   1     -24.063  11.792  13.511  0.00  0.00     0.212 A 
ATOM     12  C   UNL d   1     -22.714  12.078  16.311  0.00  0.00     0.163 C 
ATOM     13  C   UNL d   1     -24.195  13.181  12.412  0.00  0.00     0.157 C 
ATOM     14  C   UNL d   1     -22.380  15.327  15.157  0.00  0.00     0.164 C 
ENDROOT
TORSDOF 0
ENDMDL
