MODEL 1
REMARK VINA RESULT:    -6.665      0.000      0.000
REMARK INTER + INTRA:          -7.463
REMARK INTER:                  -8.561
REMARK INTRA:                   1.098
REMARK UNBOUND:                 0.955
REMARK  6 active torsions:
REMARK  status: ('A' for Active; 'I' for Inactive)
REMARK    1  A    between atoms: O_1  and  C_8 
REMARK    2  A    between atoms: O_2  and  C_9 
REMARK    3  A    between atoms: O_3  and  C_13 
REMARK    4  A    between atoms: C_5  and  C_11 
REMARK    5  A    between atoms: C_11  and  C_12 
REMARK    6  A    between atoms: C_12  and  C_13 
ROOT
ATOM      1  C   UNL d   1     -20.340 -34.473 -15.528  0.00  0.00    -0.033 A 
ATOM      2  C   UNL d   1     -20.169 -33.487 -15.505  0.00  0.00     0.050 A 
ATOM      3  C   UNL d   1     -19.751 -35.069 -16.074  0.00  0.00     0.014 A 
ATOM      4  C   UNL d   1     -19.411 -33.099 -16.027  0.00  0.00     0.099 A 
ATOM      5  C   UNL d   1     -18.822 -33.695 -16.573  0.00  0.00     0.098 A 
ATOM      6  C   UNL d   1     -18.992 -34.680 -16.597  0.00  0.00     0.040 A 
ENDROOT
BRANCH   1   7
ATOM      7  C   UNL d   1     -21.099 -34.861 -15.006  0.00  0.00     0.018 C 
BRANCH   7   8
ATOM      8  C   UNL d   1     -21.350 -34.467 -14.122  0.00  0.00     0.082 C 
BRANCH   8   9
ATOM      9  C   UNL d   1     -22.014 -34.934 -13.537  0.00  0.00     0.165 C 
ATOM     10  O   UNL d   1     -22.808 -35.386 -13.943  0.00  0.00    -0.647 OA
BRANCH   9  11
ATOM     11  O   UNL d   1     -21.883 -34.950 -12.546  0.00  0.00    -0.773 OA
ATOM     12  H   UNL d   1     -21.551 -35.403 -12.284  0.00  0.00     0.167 HD
ENDBRANCH   9  11
ENDBRANCH   8   9
ENDBRANCH   7   8
ENDBRANCH   1   7
BRANCH   4  13
ATOM     13  O   UNL d   1     -19.240 -32.114 -16.004  0.00  0.00    -0.358 OA
ATOM     14  H   UNL d   1     -19.054 -31.843 -15.478  0.00  0.00     0.217 HD
ENDBRANCH   4  13
BRANCH   5  15
ATOM     15  O   UNL d   1     -18.063 -33.306 -17.096  0.00  0.00    -0.358 OA
ATOM     16  H   UNL d   1     -17.705 -32.868 -16.843  0.00  0.00     0.217 HD
ENDBRANCH   5  15
TORSDOF 6
ENDMDL
MODEL 2
REMARK VINA RESULT:    -6.119      9.206     10.684
REMARK INTER + INTRA:          -6.774
REMARK INTER:                  -7.716
REMARK INTRA:                   0.942
REMARK UNBOUND:                 0.955
REMARK  6 active torsions:
REMARK  status: ('A' for Active; 'I' for Inactive)
REMARK    1  A    between atoms: O_1  and  C_8 
REMARK    2  A    between atoms: O_2  and  C_9 
REMARK    3  A    between atoms: O_3  and  C_13 
REMARK    4  A    between atoms: C_5  and  C_11 
REMARK    5  A    between atoms: C_11  and  C_12 
REMARK    6  A    between atoms: C_12  and  C_13 
ROOT
ATOM      1  C   UNL d   1     -15.442 -30.753 -23.007  0.00  0.00    -0.033 A 
ATOM      2  C   UNL d   1     -15.804 -29.918 -23.422  0.00  0.00     0.050 A 
ATOM      3  C   UNL d   1     -16.058 -31.510 -22.788  0.00  0.00     0.014 A 
ATOM      4  C   UNL d   1     -16.782 -29.841 -23.619  0.00  0.00     0.099 A 
ATOM      5  C   UNL d   1     -17.397 -30.598 -23.400  0.00  0.00     0.098 A 
ATOM      6  C   UNL d   1     -17.035 -31.433 -22.985  0.00  0.00     0.040 A 
ENDROOT
BRANCH   1   7
ATOM      7  C   UNL d   1     -14.465 -30.830 -22.810  0.00  0.00     0.018 C 
BRANCH   7   8
ATOM      8  C   UNL d   1     -13.817 -30.995 -23.554  0.00  0.00     0.082 C 
BRANCH   8   9
ATOM      9  C   UNL d   1     -12.852 -31.162 -23.349  0.00  0.00     0.165 C 
ATOM     10  O   UNL d   1     -12.205 -30.400 -23.334  0.00  0.00    -0.647 OA
BRANCH   9  11
ATOM     11  O   UNL d   1     -12.535 -32.091 -23.159  0.00  0.00    -0.773 OA
ATOM     12  H   UNL d   1     -12.671 -32.551 -23.552  0.00  0.00     0.167 HD
ENDBRANCH   9  11
ENDBRANCH   8   9
ENDBRANCH   7   8
ENDBRANCH   1   7
BRANCH   4  13
ATOM     13  O   UNL d   1     -17.144 -29.006 -24.034  0.00  0.00    -0.358 OA
ATOM     14  H   UNL d   1     -17.756 -28.934 -24.103  0.00  0.00     0.217 HD
ENDBRANCH   4  13
BRANCH   5  15
ATOM     15  O   UNL d   1     -18.375 -30.521 -23.596  0.00  0.00    -0.358 OA
ATOM     16  H   UNL d   1     -18.565 -30.359 -24.164  0.00  0.00     0.217 HD
ENDBRANCH   5  15
TORSDOF 6
ENDMDL
MODEL 3
REMARK VINA RESULT:    -6.093     41.678     42.784
REMARK INTER + INTRA:          -6.741
REMARK INTER:                  -7.698
REMARK INTRA:                   0.957
REMARK UNBOUND:                 0.955
REMARK  6 active torsions:
REMARK  status: ('A' for Active; 'I' for Inactive)
REMARK    1  A    between atoms: O_1  and  C_8 
REMARK    2  A    between atoms: O_2  and  C_9 
REMARK    3  A    between atoms: O_3  and  C_13 
REMARK    4  A    between atoms: C_5  and  C_11 
REMARK    5  A    between atoms: C_11  and  C_12 
REMARK    6  A    between atoms: C_12  and  C_13 
ROOT
ATOM      1  C   UNL d   1      -9.156   3.079   3.001  0.00  0.00    -0.033 A 
ATOM      2  C   UNL d   1      -8.392   2.692   3.517  0.00  0.00     0.050 A 
ATOM      3  C   UNL d   1      -9.012   3.881   2.422  0.00  0.00     0.014 A 
ATOM      4  C   UNL d   1      -7.485   3.107   3.455  0.00  0.00     0.099 A 
ATOM      5  C   UNL d   1      -7.341   3.910   2.876  0.00  0.00     0.098 A 
ATOM      6  C   UNL d   1      -8.105   4.297   2.359  0.00  0.00     0.040 A 
ENDROOT
BRANCH   1   7
ATOM      7  C   UNL d   1     -10.063   2.664   3.064  0.00  0.00     0.018 C 
BRANCH   7   8
ATOM      8  C   UNL d   1     -10.386   2.056   2.338  0.00  0.00     0.082 C 
BRANCH   8   9
ATOM      9  C   UNL d   1     -11.204   1.498   2.480  0.00  0.00     0.165 C 
ATOM     10  O   UNL d   1     -11.118   0.512   2.622  0.00  0.00    -0.647 OA
BRANCH   9  11
ATOM     11  O   UNL d   1     -12.108   1.926   2.480  0.00  0.00    -0.773 OA
ATOM     12  H   UNL d   1     -12.598   1.615   2.264  0.00  0.00     0.167 HD
ENDBRANCH   9  11
ENDBRANCH   8   9
ENDBRANCH   7   8
ENDBRANCH   1   7
BRANCH   4  13
ATOM     13  O   UNL d   1      -6.721   2.720   3.971  0.00  0.00    -0.358 OA
ATOM     14  H   UNL d   1      -6.316   3.095   4.253  0.00  0.00     0.217 HD
ENDBRANCH   4  13
BRANCH   5  15
ATOM     15  O   UNL d   1      -6.433   4.325   2.813  0.00  0.00    -0.358 OA
ATOM     16  H   UNL d   1      -6.306   4.725   2.356  0.00  0.00     0.217 HD
ENDBRANCH   5  15
TORSDOF 6
ENDMDL
MODEL 4
REMARK VINA RESULT:    -6.060      6.799      8.058
REMARK INTER + INTRA:          -6.699
REMARK INTER:                  -7.634
REMARK INTRA:                   0.935
REMARK UNBOUND:                 0.955
REMARK  6 active torsions:
REMARK  status: ('A' for Active; 'I' for Inactive)
REMARK    1  A    between atoms: O_1  and  C_8 
REMARK    2  A    between atoms: O_2  and  C_9 
REMARK    3  A    between atoms: O_3  and  C_13 
REMARK    4  A    between atoms: C_5  and  C_11 
REMARK    5  A    between atoms: C_11  and  C_12 
REMARK    6  A    between atoms: C_12  and  C_13 
ROOT
ATOM      1  C   UNL d   1     -21.281 -29.204 -10.049  0.00  0.00    -0.033 A 
ATOM      2  C   UNL d   1     -21.202 -29.635  -9.150  0.00  0.00     0.050 A 
ATOM      3  C   UNL d   1     -21.422 -28.217 -10.119  0.00  0.00     0.014 A 
ATOM      4  C   UNL d   1     -21.264 -29.079  -8.321  0.00  0.00     0.099 A 
ATOM      5  C   UNL d   1     -21.405 -28.091  -8.392  0.00  0.00     0.098 A 
ATOM      6  C   UNL d   1     -21.485 -27.660  -9.291  0.00  0.00     0.040 A 
ENDROOT
BRANCH   1   7
ATOM      7  C   UNL d   1     -21.219 -29.761 -10.877  0.00  0.00     0.018 C 
BRANCH   7   8
ATOM      8  C   UNL d   1     -22.024 -30.249 -11.213  0.00  0.00     0.082 C 
BRANCH   8   9
ATOM      9  C   UNL d   1     -22.000 -30.700 -12.106  0.00  0.00     0.165 C 
ATOM     10  O   UNL d   1     -21.540 -31.582 -12.208  0.00  0.00    -0.647 OA
BRANCH   9  11
ATOM     11  O   UNL d   1     -22.435 -30.268 -12.896  0.00  0.00    -0.773 OA
ATOM     12  H   UNL d   1     -23.052 -30.285 -12.957  0.00  0.00     0.167 HD
ENDBRANCH   9  11
ENDBRANCH   8   9
ENDBRANCH   7   8
ENDBRANCH   1   7
BRANCH   4  13
ATOM     13  O   UNL d   1     -21.185 -29.509  -7.422  0.00  0.00    -0.358 OA
ATOM     14  H   UNL d   1     -21.426 -30.073  -7.326  0.00  0.00     0.217 HD
ENDBRANCH   4  13
BRANCH   5  15
ATOM     15  O   UNL d   1     -21.468 -27.535  -7.563  0.00  0.00    -0.358 OA
ATOM     16  H   UNL d   1     -21.044 -27.096  -7.452  0.00  0.00     0.217 HD
ENDBRANCH   5  15
TORSDOF 6
ENDMDL
MODEL 5
REMARK VINA RESULT:    -6.028     42.266     43.502
REMARK INTER + INTRA:          -6.659
REMARK INTER:                  -7.850
REMARK INTRA:                   1.191
REMARK UNBOUND:                 0.955
REMARK  6 active torsions:
REMARK  status: ('A' for Active; 'I' for Inactive)
REMARK    1  A    between atoms: O_1  and  C_8 
REMARK    2  A    between atoms: O_2  and  C_9 
REMARK    3  A    between atoms: O_3  and  C_13 
REMARK    4  A    between atoms: C_5  and  C_11 
REMARK    5  A    between atoms: C_11  and  C_12 
REMARK    6  A    between atoms: C_12  and  C_13 
ROOT
ATOM      1  C   UNL d   1      -9.043   3.927   2.258  0.00  0.00    -0.033 A 
ATOM      2  C   UNL d   1      -9.336   3.052   2.643  0.00  0.00     0.050 A 
ATOM      3  C   UNL d   1      -9.683   4.476   1.721  0.00  0.00     0.014 A 
ATOM      4  C   UNL d   1     -10.269   2.726   2.491  0.00  0.00     0.099 A 
ATOM      5  C   UNL d   1     -10.909   3.275   1.954  0.00  0.00     0.098 A 
ATOM      6  C   UNL d   1     -10.616   4.150   1.568  0.00  0.00     0.040 A 
ENDROOT
BRANCH   1   7
ATOM      7  C   UNL d   1      -8.110   4.253   2.411  0.00  0.00     0.018 C 
BRANCH   7   8
ATOM      8  C   UNL d   1      -7.514   3.780   3.059  0.00  0.00     0.082 C 
BRANCH   8   9
ATOM      9  C   UNL d   1      -6.698   4.236   3.414  0.00  0.00     0.165 C 
ATOM     10  O   UNL d   1      -6.128   4.786   2.804  0.00  0.00    -0.647 OA
BRANCH   9  11
ATOM     11  O   UNL d   1      -6.453   4.142   4.379  0.00  0.00    -0.773 OA
ATOM     12  H   UNL d   1      -6.485   3.587   4.654  0.00  0.00     0.167 HD
ENDBRANCH   9  11
ENDBRANCH   8   9
ENDBRANCH   7   8
ENDBRANCH   1   7
BRANCH   4  13
ATOM     13  O   UNL d   1     -10.562   1.851   2.876  0.00  0.00    -0.358 OA
ATOM     14  H   UNL d   1     -10.681   1.372   2.501  0.00  0.00     0.217 HD
ENDBRANCH   4  13
BRANCH   5  15
ATOM     15  O   UNL d   1     -11.842   2.949   1.801  0.00  0.00    -0.358 OA
ATOM     16  H   UNL d   1     -11.952   2.514   1.373  0.00  0.00     0.217 HD
ENDBRANCH   5  15
TORSDOF 6
ENDMDL
