MODEL 1
REMARK VINA RESULT:    -8.800      0.000      0.000
REMARK INTER + INTRA:          -6.365
REMARK INTER:                 -11.718
REMARK INTRA:                   5.353
REMARK UNBOUND:                 5.008
REMARK  6 active torsions:
REMARK  status: ('A' for Active; 'I' for Inactive)
REMARK    1  A    between atoms: O_2  and  C_15 
REMARK    2  A    between atoms: O_3  and  C_17 
REMARK    3  A    between atoms: O_4  and  C_11 
REMARK    4  A    between atoms: O_6  and  C_22 
REMARK    5  A    between atoms: O_7  and  C_20 
REMARK    6  A    between atoms: C_10  and  C_13 
ROOT
ATOM      1  O   UNL d   1     -22.056 -35.682 -14.643  0.00  0.00    -0.309 OA
ATOM      2  O   UNL d   1     -22.494 -34.228 -11.976  0.00  0.00    -0.287 OA
ATOM      3  C   UNL d   1     -22.931 -35.518 -13.106  0.00  0.00     0.084 A 
ATOM      4  C   UNL d   1     -22.791 -35.994 -13.974  0.00  0.00     0.096 A 
ATOM      5  C   UNL d   1     -21.459 -34.863 -14.404  0.00  0.00     0.090 A 
ATOM      6  C   UNL d   1     -23.640 -35.829 -12.473  0.00  0.00     0.119 A 
ATOM      7  C   UNL d   1     -22.345 -34.697 -12.847  0.00  0.00     0.190 A 
ATOM      8  C   UNL d   1     -23.361 -36.781 -14.210  0.00  0.00     0.078 A 
ATOM      9  C   UNL d   1     -24.210 -36.616 -12.709  0.00  0.00     0.136 A 
ATOM     10  C   UNL d   1     -21.604 -34.367 -13.500  0.00  0.00     0.094 A 
ATOM     11  C   UNL d   1     -24.071 -37.092 -13.577  0.00  0.00     0.107 A 
ENDROOT
BRANCH   5  12
ATOM     12  C   UNL d   1     -20.750 -34.554 -15.039  0.00  0.00     0.001 A 
ATOM     13  C   UNL d   1     -20.590 -33.576 -15.172  0.00  0.00     0.053 A 
ATOM     14  C   UNL d   1     -19.881 -33.267 -15.806  0.00  0.00     0.099 A 
ATOM     15  C   UNL d   1     -19.333 -33.937 -16.308  0.00  0.00     0.101 A 
ATOM     16  C   UNL d   1     -19.494 -34.915 -16.175  0.00  0.00     0.040 A 
ATOM     17  C   UNL d   1     -20.202 -35.223 -15.541  0.00  0.00     0.017 A 
BRANCH  14  18
ATOM     18  O   UNL d   1     -19.720 -32.289 -15.940  0.00  0.00    -0.358 OA
ATOM     19  H   UNL d   1     -19.149 -32.083 -16.062  0.00  0.00     0.217 HD
ENDBRANCH  14  18
BRANCH  15  20
ATOM     20  O   UNL d   1     -18.625 -33.629 -16.942  0.00  0.00    -0.353 OA
ATOM     21  C   UNL d   1     -18.503 -34.091 -17.820  0.00  0.00     0.210 C 
ENDBRANCH  15  20
ENDBRANCH   5  12
BRANCH   6  22
ATOM     22  O   UNL d   1     -23.780 -35.353 -11.605  0.00  0.00    -0.357 OA
ATOM     23  H   UNL d   1     -24.159 -34.862 -11.578  0.00  0.00     0.218 HD
ENDBRANCH   6  22
BRANCH  11  24
ATOM     24  O   UNL d   1     -24.640 -37.879 -13.813  0.00  0.00    -0.353 OA
ATOM     25  C   UNL d   1     -24.340 -38.520 -14.520  0.00  0.00     0.210 C 
ENDBRANCH  11  24
BRANCH   9  26
ATOM     26  O   UNL d   1     -24.920 -36.927 -12.077  0.00  0.00    -0.351 OA
ATOM     27  C   UNL d   1     -25.788 -36.435 -12.019  0.00  0.00     0.210 C 
ENDBRANCH   9  26
TORSDOF 6
ENDMDL
MODEL 2
REMARK VINA RESULT:    -8.594      2.046      3.555
REMARK INTER + INTRA:          -6.099
REMARK INTER:                 -11.379
REMARK INTRA:                   5.281
REMARK UNBOUND:                 5.008
REMARK  6 active torsions:
REMARK  status: ('A' for Active; 'I' for Inactive)
REMARK    1  A    between atoms: O_2  and  C_15 
REMARK    2  A    between atoms: O_3  and  C_17 
REMARK    3  A    between atoms: O_4  and  C_11 
REMARK    4  A    between atoms: O_6  and  C_22 
REMARK    5  A    between atoms: O_7  and  C_20 
REMARK    6  A    between atoms: C_10  and  C_13 
ROOT
ATOM      1  O   UNL d   1     -21.305 -33.082 -13.959  0.00  0.00    -0.309 OA
ATOM      2  O   UNL d   1     -22.764 -35.427 -12.621  0.00  0.00    -0.287 OA
ATOM      3  C   UNL d   1     -22.412 -33.696 -12.713  0.00  0.00     0.084 A 
ATOM      4  C   UNL d   1     -21.938 -32.929 -13.146  0.00  0.00     0.096 A 
ATOM      5  C   UNL d   1     -21.164 -34.047 -14.325  0.00  0.00     0.090 A 
ATOM      6  C   UNL d   1     -23.017 -33.533 -11.933  0.00  0.00     0.119 A 
ATOM      7  C   UNL d   1     -22.285 -34.668 -13.062  0.00  0.00     0.190 A 
ATOM      8  C   UNL d   1     -22.069 -32.000 -12.800  0.00  0.00     0.078 A 
ATOM      9  C   UNL d   1     -23.148 -32.604 -11.587  0.00  0.00     0.136 A 
ATOM     10  C   UNL d   1     -21.657 -34.846 -13.873  0.00  0.00     0.094 A 
ATOM     11  C   UNL d   1     -22.674 -31.838 -12.021  0.00  0.00     0.107 A 
ENDROOT
BRANCH   5  12
ATOM     12  C   UNL d   1     -20.558 -34.206 -15.105  0.00  0.00     0.001 A 
ATOM     13  C   UNL d   1     -20.014 -35.044 -15.152  0.00  0.00     0.053 A 
ATOM     14  C   UNL d   1     -19.408 -35.204 -15.932  0.00  0.00     0.099 A 
ATOM     15  C   UNL d   1     -19.347 -34.525 -16.664  0.00  0.00     0.101 A 
ATOM     16  C   UNL d   1     -19.891 -33.687 -16.616  0.00  0.00     0.040 A 
ATOM     17  C   UNL d   1     -20.496 -33.528 -15.837  0.00  0.00     0.017 A 
BRANCH  14  18
ATOM     18  O   UNL d   1     -18.864 -36.041 -15.980  0.00  0.00    -0.358 OA
ATOM     19  H   UNL d   1     -18.473 -36.131 -16.452  0.00  0.00     0.217 HD
ENDBRANCH  14  18
BRANCH  15  20
ATOM     20  O   UNL d   1     -18.741 -34.684 -17.443  0.00  0.00    -0.353 OA
ATOM     21  C   UNL d   1     -18.660 -33.995 -18.163  0.00  0.00     0.210 C 
ENDBRANCH  15  20
ENDBRANCH   5  12
BRANCH   6  22
ATOM     22  O   UNL d   1     -23.491 -34.300 -11.500  0.00  0.00    -0.357 OA
ATOM     23  H   UNL d   1     -23.203 -34.637 -11.066  0.00  0.00     0.218 HD
ENDBRANCH   6  22
BRANCH  11  24
ATOM     24  O   UNL d   1     -22.805 -30.909 -11.674  0.00  0.00    -0.353 OA
ATOM     25  C   UNL d   1     -22.286 -30.150 -12.068  0.00  0.00     0.210 C 
ENDBRANCH  11  24
BRANCH   9  26
ATOM     26  O   UNL d   1     -23.753 -32.442 -10.808  0.00  0.00    -0.351 OA
ATOM     27  C   UNL d   1     -24.745 -32.460 -10.932  0.00  0.00     0.210 C 
ENDBRANCH   9  26
TORSDOF 6
ENDMDL
MODEL 3
REMARK VINA RESULT:    -8.532     47.750     50.060
REMARK INTER + INTRA:          -6.018
REMARK INTER:                 -11.087
REMARK INTRA:                   5.069
REMARK UNBOUND:                 5.008
REMARK  6 active torsions:
REMARK  status: ('A' for Active; 'I' for Inactive)
REMARK    1  A    between atoms: O_2  and  C_15 
REMARK    2  A    between atoms: O_3  and  C_17 
REMARK    3  A    between atoms: O_4  and  C_11 
REMARK    4  A    between atoms: O_6  and  C_22 
REMARK    5  A    between atoms: O_7  and  C_20 
REMARK    6  A    between atoms: C_10  and  C_13 
ROOT
ATOM      1  O   UNL d   1      -3.558   6.514   4.323  0.00  0.00    -0.309 OA
ATOM      2  O   UNL d   1      -3.785   9.575   4.352  0.00  0.00    -0.287 OA
ATOM      3  C   UNL d   1      -2.806   8.115   4.155  0.00  0.00     0.084 A 
ATOM      4  C   UNL d   1      -2.728   7.118   4.145  0.00  0.00     0.096 A 
ATOM      5  C   UNL d   1      -4.482   6.956   4.515  0.00  0.00     0.090 A 
ATOM      6  C   UNL d   1      -2.000   8.681   3.981  0.00  0.00     0.119 A 
ATOM      7  C   UNL d   1      -3.719   8.577   4.345  0.00  0.00     0.190 A 
ATOM      8  C   UNL d   1      -1.845   6.687   3.961  0.00  0.00     0.078 A 
ATOM      9  C   UNL d   1      -1.116   8.250   3.798  0.00  0.00     0.136 A 
ATOM     10  C   UNL d   1      -4.563   7.995   4.526  0.00  0.00     0.094 A 
ATOM     11  C   UNL d   1      -1.039   7.253   3.787  0.00  0.00     0.107 A 
ENDROOT
BRANCH   5  12
ATOM     12  C   UNL d   1      -5.286   6.387   4.689  0.00  0.00     0.001 A 
ATOM     13  C   UNL d   1      -5.670   6.333   5.610  0.00  0.00     0.053 A 
ATOM     14  C   UNL d   1      -6.474   5.764   5.784  0.00  0.00     0.099 A 
ATOM     15  C   UNL d   1      -6.893   5.249   5.035  0.00  0.00     0.101 A 
ATOM     16  C   UNL d   1      -6.509   5.304   4.114  0.00  0.00     0.040 A 
ATOM     17  C   UNL d   1      -5.705   5.872   3.941  0.00  0.00     0.017 A 
BRANCH  14  18
ATOM     18  O   UNL d   1      -6.860   5.709   6.705  0.00  0.00    -0.358 OA
ATOM     19  H   UNL d   1      -6.917   6.221   7.049  0.00  0.00     0.217 HD
ENDBRANCH  14  18
BRANCH  15  20
ATOM     20  O   UNL d   1      -7.697   4.680   5.208  0.00  0.00    -0.353 OA
ATOM     21  C   UNL d   1      -8.043   4.072   4.495  0.00  0.00     0.210 C 
ENDBRANCH  15  20
ENDBRANCH   5  12
BRANCH   6  22
ATOM     22  O   UNL d   1      -2.078   9.678   3.992  0.00  0.00    -0.357 OA
ATOM     23  H   UNL d   1      -2.626   9.945   4.101  0.00  0.00     0.218 HD
ENDBRANCH   6  22
BRANCH  11  24
ATOM     24  O   UNL d   1      -0.155   6.822   3.604  0.00  0.00    -0.353 OA
ATOM     25  C   UNL d   1      -0.117   5.871   3.298  0.00  0.00     0.210 C 
ENDBRANCH  11  24
BRANCH   9  26
ATOM     26  O   UNL d   1      -0.311   8.816   3.624  0.00  0.00    -0.351 OA
ATOM     27  C   UNL d   1       0.199   9.208   4.390  0.00  0.00     0.210 C 
ENDBRANCH   9  26
TORSDOF 6
ENDMDL
MODEL 4
REMARK VINA RESULT:    -8.450     47.885     49.404
REMARK INTER + INTRA:          -5.911
REMARK INTER:                 -10.946
REMARK INTRA:                   5.035
REMARK UNBOUND:                 5.008
REMARK  6 active torsions:
REMARK  status: ('A' for Active; 'I' for Inactive)
REMARK    1  A    between atoms: O_2  and  C_15 
REMARK    2  A    between atoms: O_3  and  C_17 
REMARK    3  A    between atoms: O_4  and  C_11 
REMARK    4  A    between atoms: O_6  and  C_22 
REMARK    5  A    between atoms: O_7  and  C_20 
REMARK    6  A    between atoms: C_10  and  C_13 
ROOT
ATOM      1  O   UNL d   1       6.767   1.431   2.724  0.00  0.00    -0.309 OA
ATOM      2  O   UNL d   1       7.193  -1.584   2.344  0.00  0.00    -0.287 OA
ATOM      3  C   UNL d   1       6.771  -0.217   3.385  0.00  0.00     0.084 A 
ATOM      4  C   UNL d   1       6.631   0.765   3.513  0.00  0.00     0.096 A 
ATOM      5  C   UNL d   1       7.052   1.070   1.789  0.00  0.00     0.090 A 
ATOM      6  C   UNL d   1       6.637  -0.845   4.152  0.00  0.00     0.119 A 
ATOM      7  C   UNL d   1       7.056  -0.600   2.460  0.00  0.00     0.190 A 
ATOM      8  C   UNL d   1       6.357   1.119   4.407  0.00  0.00     0.078 A 
ATOM      9  C   UNL d   1       6.364  -0.491   5.046  0.00  0.00     0.136 A 
ATOM     10  C   UNL d   1       7.198   0.046   1.656  0.00  0.00     0.094 A 
ATOM     11  C   UNL d   1       6.224   0.491   5.174  0.00  0.00     0.107 A 
ENDROOT
BRANCH   5  12
ATOM     12  C   UNL d   1       7.185   1.700   1.025  0.00  0.00     0.001 A 
ATOM     13  C   UNL d   1       8.081   2.117   0.871  0.00  0.00     0.053 A 
ATOM     14  C   UNL d   1       8.214   2.748   0.106  0.00  0.00     0.099 A 
ATOM     15  C   UNL d   1       7.452   2.961  -0.504  0.00  0.00     0.101 A 
ATOM     16  C   UNL d   1       6.556   2.544  -0.351  0.00  0.00     0.040 A 
ATOM     17  C   UNL d   1       6.423   1.913   0.414  0.00  0.00     0.017 A 
BRANCH  14  18
ATOM     18  O   UNL d   1       9.110   3.166  -0.048  0.00  0.00    -0.358 OA
ATOM     19  H   UNL d   1       9.463   3.330   0.434  0.00  0.00     0.217 HD
ENDBRANCH  14  18
BRANCH  15  20
ATOM     20  O   UNL d   1       7.585   3.591  -1.269  0.00  0.00    -0.353 OA
ATOM     21  C   UNL d   1       6.801   4.070  -1.665  0.00  0.00     0.210 C 
ENDBRANCH  15  20
ENDBRANCH   5  12
BRANCH   6  22
ATOM     22  O   UNL d   1       6.777  -1.827   4.025  0.00  0.00    -0.357 OA
ATOM     23  H   UNL d   1       6.769  -2.070   3.454  0.00  0.00     0.218 HD
ENDBRANCH   6  22
BRANCH  11  24
ATOM     24  O   UNL d   1       5.950   0.845   6.068  0.00  0.00    -0.353 OA
ATOM     25  C   UNL d   1       5.866   1.831   6.211  0.00  0.00     0.210 C 
ENDBRANCH  11  24
BRANCH   9  26
ATOM     26  O   UNL d   1       6.230  -1.119   5.813  0.00  0.00    -0.351 OA
ATOM     27  C   UNL d   1       5.400  -1.674   5.866  0.00  0.00     0.210 C 
ENDBRANCH   9  26
TORSDOF 6
ENDMDL
MODEL 5
REMARK VINA RESULT:    -8.426      3.415      5.323
REMARK INTER + INTRA:          -5.881
REMARK INTER:                 -10.948
REMARK INTRA:                   5.067
REMARK UNBOUND:                 5.008
REMARK  6 active torsions:
REMARK  status: ('A' for Active; 'I' for Inactive)
REMARK    1  A    between atoms: O_2  and  C_15 
REMARK    2  A    between atoms: O_3  and  C_17 
REMARK    3  A    between atoms: O_4  and  C_11 
REMARK    4  A    between atoms: O_6  and  C_22 
REMARK    5  A    between atoms: O_7  and  C_20 
REMARK    6  A    between atoms: C_10  and  C_13 
ROOT
ATOM      1  O   UNL d   1     -21.299 -32.082 -13.236  0.00  0.00    -0.309 OA
ATOM      2  O   UNL d   1     -22.931 -34.360 -11.987  0.00  0.00    -0.287 OA
ATOM      3  C   UNL d   1     -21.886 -33.758 -13.281  0.00  0.00     0.084 A 
ATOM      4  C   UNL d   1     -21.353 -33.018 -13.691  0.00  0.00     0.096 A 
ATOM      5  C   UNL d   1     -21.807 -31.915 -12.343  0.00  0.00     0.090 A 
ATOM      6  C   UNL d   1     -21.928 -34.651 -13.729  0.00  0.00     0.119 A 
ATOM      7  C   UNL d   1     -22.402 -33.613 -12.388  0.00  0.00     0.190 A 
ATOM      8  C   UNL d   1     -20.863 -33.171 -14.549  0.00  0.00     0.078 A 
ATOM      9  C   UNL d   1     -21.438 -34.804 -14.587  0.00  0.00     0.136 A 
ATOM     10  C   UNL d   1     -22.363 -32.686 -11.915  0.00  0.00     0.094 A 
ATOM     11  C   UNL d   1     -20.905 -34.064 -14.997  0.00  0.00     0.107 A 
ENDROOT
BRANCH   5  12
ATOM     12  C   UNL d   1     -21.763 -31.021 -11.897  0.00  0.00     0.001 A 
ATOM     13  C   UNL d   1     -21.173 -30.888 -11.101  0.00  0.00     0.053 A 
ATOM     14  C   UNL d   1     -21.128 -29.994 -10.655  0.00  0.00     0.099 A 
ATOM     15  C   UNL d   1     -21.673 -29.232 -11.007  0.00  0.00     0.101 A 
ATOM     16  C   UNL d   1     -22.262 -29.365 -11.803  0.00  0.00     0.040 A 
ATOM     17  C   UNL d   1     -22.307 -30.259 -12.248  0.00  0.00     0.017 A 
BRANCH  14  18
ATOM     18  O   UNL d   1     -20.539 -29.860  -9.858  0.00  0.00    -0.358 OA
ATOM     19  H   UNL d   1     -19.930 -29.965  -9.901  0.00  0.00     0.217 HD
ENDBRANCH  14  18
BRANCH  15  20
ATOM     20  O   UNL d   1     -21.628 -28.338 -10.562  0.00  0.00    -0.353 OA
ATOM     21  C   UNL d   1     -21.836 -27.510 -11.081  0.00  0.00     0.210 C 
ENDBRANCH  15  20
ENDBRANCH   5  12
BRANCH   6  22
ATOM     22  O   UNL d   1     -22.461 -35.391 -13.318  0.00  0.00    -0.357 OA
ATOM     23  H   UNL d   1     -22.452 -35.476 -12.704  0.00  0.00     0.218 HD
ENDBRANCH   6  22
BRANCH  11  24
ATOM     24  O   UNL d   1     -20.415 -34.217 -15.855  0.00  0.00    -0.353 OA
ATOM     25  C   UNL d   1     -19.781 -33.524 -16.199  0.00  0.00     0.210 C 
ENDBRANCH  11  24
BRANCH   9  26
ATOM     26  O   UNL d   1     -21.481 -35.697 -15.034  0.00  0.00    -0.351 OA
ATOM     27  C   UNL d   1     -22.305 -35.969 -15.530  0.00  0.00     0.210 C 
ENDBRANCH   9  26
TORSDOF 6
ENDMDL
