MODEL 1
REMARK VINA RESULT:    -9.139      0.000      0.000
REMARK INTER + INTRA:          -9.085
REMARK INTER:                 -10.940
REMARK INTRA:                   1.855
REMARK UNBOUND:                 1.923
REMARK  5 active torsions:
REMARK  status: ('A' for Active; 'I' for Inactive)
REMARK    1  A    between atoms: O_2  and  C_13 
REMARK    2  A    between atoms: O_3  and  C_19 
REMARK    3  A    between atoms: O_5  and  C_17 
REMARK    4  A    between atoms: O_6  and  C_21 
REMARK    5  A    between atoms: C_8  and  C_10 
ROOT
ATOM      1  O   UNL d   1     -14.194 -30.143 -20.769  0.00  0.00    -0.309 OA
ATOM      2  O   UNL d   1     -11.557 -29.471 -22.033  0.00  0.00    -0.287 OA
ATOM      3  C   UNL d   1     -12.511 -29.761 -20.617  0.00  0.00     0.081 A 
ATOM      4  C   UNL d   1     -14.119 -30.076 -21.764  0.00  0.00     0.090 A 
ATOM      5  C   UNL d   1     -13.390 -29.985 -20.195  0.00  0.00     0.095 A 
ATOM      6  C   UNL d   1     -12.436 -29.695 -21.612  0.00  0.00     0.190 A 
ATOM      7  C   UNL d   1     -13.240 -29.852 -22.185  0.00  0.00     0.094 A 
ATOM      8  C   UNL d   1     -11.666 -29.594 -20.032  0.00  0.00     0.085 A 
ATOM      9  C   UNL d   1     -13.484 -30.058 -19.160  0.00  0.00     0.075 A 
ATOM     10  C   UNL d   1     -12.651 -29.895 -18.556  0.00  0.00     0.071 A 
ATOM     11  C   UNL d   1     -11.736 -29.662 -18.995  0.00  0.00     0.074 A 
ENDROOT
BRANCH   4  12
ATOM     12  C   UNL d   1     -14.923 -30.234 -22.338  0.00  0.00     0.001 A 
ATOM     13  C   UNL d   1     -15.358 -29.468 -22.810  0.00  0.00     0.054 A 
ATOM     14  C   UNL d   1     -16.161 -29.625 -23.384  0.00  0.00     0.102 A 
ATOM     15  C   UNL d   1     -16.530 -30.549 -23.485  0.00  0.00     0.099 A 
ATOM     16  C   UNL d   1     -16.095 -31.316 -23.012  0.00  0.00     0.040 A 
ATOM     17  C   UNL d   1     -15.291 -31.158 -22.439  0.00  0.00     0.017 A 
BRANCH  14  18
ATOM     18  O   UNL d   1     -16.597 -28.859 -23.856  0.00  0.00    -0.353 OA
ATOM     19  C   UNL d   1     -16.166 -27.956 -23.847  0.00  0.00     0.210 C 
ENDBRANCH  14  18
BRANCH  15  20
ATOM     20  O   UNL d   1     -17.334 -30.707 -24.058  0.00  0.00    -0.358 OA
ATOM     21  H   UNL d   1     -17.854 -30.386 -23.958  0.00  0.00     0.217 HD
ENDBRANCH  15  20
ENDBRANCH   4  12
BRANCH   8  22
ATOM     22  O   UNL d   1     -10.792 -29.371 -20.464  0.00  0.00    -0.360 OA
ATOM     23  H   UNL d   1     -10.593 -29.702 -20.949  0.00  0.00     0.217 HD
ENDBRANCH   8  22
BRANCH  10  24
ATOM     24  O   UNL d   1     -12.731 -29.962 -17.561  0.00  0.00    -0.361 OA
ATOM     25  H   UNL d   1     -12.410 -29.575 -17.198  0.00  0.00     0.217 HD
ENDBRANCH  10  24
TORSDOF 5
ENDMDL
MODEL 2
REMARK VINA RESULT:    -9.091     45.491     47.424
REMARK INTER + INTRA:          -9.028
REMARK INTER:                 -11.304
REMARK INTRA:                   2.275
REMARK UNBOUND:                 1.923
REMARK  5 active torsions:
REMARK  status: ('A' for Active; 'I' for Inactive)
REMARK    1  A    between atoms: O_2  and  C_13 
REMARK    2  A    between atoms: O_3  and  C_19 
REMARK    3  A    between atoms: O_5  and  C_17 
REMARK    4  A    between atoms: O_6  and  C_21 
REMARK    5  A    between atoms: C_8  and  C_10 
ROOT
ATOM      1  O   UNL d   1      -2.329   7.666   3.970  0.00  0.00    -0.309 OA
ATOM      2  O   UNL d   1       0.114   9.388   4.227  0.00  0.00    -0.287 OA
ATOM      3  C   UNL d   1      -0.608   7.848   3.899  0.00  0.00     0.081 A 
ATOM      4  C   UNL d   1      -2.422   8.632   4.212  0.00  0.00     0.090 A 
ATOM      5  C   UNL d   1      -1.423   7.274   3.814  0.00  0.00     0.095 A 
ATOM      6  C   UNL d   1      -0.701   8.814   4.141  0.00  0.00     0.190 A 
ATOM      7  C   UNL d   1      -1.607   9.206   4.298  0.00  0.00     0.094 A 
ATOM      8  C   UNL d   1       0.342   7.454   3.739  0.00  0.00     0.085 A 
ATOM      9  C   UNL d   1      -1.342   6.266   3.562  0.00  0.00     0.075 A 
ATOM     10  C   UNL d   1      -0.401   5.851   3.398  0.00  0.00     0.071 A 
ATOM     11  C   UNL d   1       0.446   6.449   3.487  0.00  0.00     0.074 A 
ENDROOT
BRANCH   4  12
ATOM     12  C   UNL d   1      -3.328   9.023   4.369  0.00  0.00     0.001 A 
ATOM     13  C   UNL d   1      -4.147   8.492   4.151  0.00  0.00     0.054 A 
ATOM     14  C   UNL d   1      -5.053   8.884   4.308  0.00  0.00     0.102 A 
ATOM     15  C   UNL d   1      -5.142   9.807   4.682  0.00  0.00     0.099 A 
ATOM     16  C   UNL d   1      -4.323  10.338   4.900  0.00  0.00     0.040 A 
ATOM     17  C   UNL d   1      -3.416   9.947   4.743  0.00  0.00     0.017 A 
BRANCH  14  18
ATOM     18  O   UNL d   1      -5.872   8.352   4.090  0.00  0.00    -0.353 OA
ATOM     19  C   UNL d   1      -5.822   7.355   4.038  0.00  0.00     0.210 C 
ENDBRANCH  14  18
BRANCH  15  20
ATOM     20  O   UNL d   1      -6.048  10.199   4.838  0.00  0.00    -0.358 OA
ATOM     21  H   UNL d   1      -6.361  10.454   4.368  0.00  0.00     0.217 HD
ENDBRANCH  15  20
ENDBRANCH   4  12
BRANCH   8  22
ATOM     22  O   UNL d   1       1.150   8.038   3.828  0.00  0.00    -0.360 OA
ATOM     23  H   UNL d   1       1.702   7.834   3.634  0.00  0.00     0.217 HD
ENDBRANCH   8  22
BRANCH  10  24
ATOM     24  O   UNL d   1      -0.313   4.885   3.156  0.00  0.00    -0.361 OA
ATOM     25  H   UNL d   1       0.178   4.690   2.832  0.00  0.00     0.217 HD
ENDBRANCH  10  24
TORSDOF 5
ENDMDL
MODEL 3
REMARK VINA RESULT:    -9.033      1.425      5.056
REMARK INTER + INTRA:          -8.958
REMARK INTER:                 -10.778
REMARK INTRA:                   1.821
REMARK UNBOUND:                 1.923
REMARK  5 active torsions:
REMARK  status: ('A' for Active; 'I' for Inactive)
REMARK    1  A    between atoms: O_2  and  C_13 
REMARK    2  A    between atoms: O_3  and  C_19 
REMARK    3  A    between atoms: O_5  and  C_17 
REMARK    4  A    between atoms: O_6  and  C_21 
REMARK    5  A    between atoms: C_8  and  C_10 
ROOT
ATOM      1  O   UNL d   1     -14.529 -30.493 -22.377  0.00  0.00    -0.309 OA
ATOM      2  O   UNL d   1     -15.931 -28.347 -23.936  0.00  0.00    -0.287 OA
ATOM      3  C   UNL d   1     -15.941 -29.913 -23.196  0.00  0.00     0.081 A 
ATOM      4  C   UNL d   1     -14.052 -29.642 -22.597  0.00  0.00     0.090 A 
ATOM      5  C   UNL d   1     -15.474 -30.629 -22.677  0.00  0.00     0.095 A 
ATOM      6  C   UNL d   1     -15.464 -29.062 -23.416  0.00  0.00     0.190 A 
ATOM      7  C   UNL d   1     -14.520 -28.927 -23.116  0.00  0.00     0.094 A 
ATOM      8  C   UNL d   1     -16.924 -30.041 -23.515  0.00  0.00     0.085 A 
ATOM      9  C   UNL d   1     -15.957 -31.521 -22.440  0.00  0.00     0.075 A 
ATOM     10  C   UNL d   1     -16.941 -31.669 -22.749  0.00  0.00     0.071 A 
ATOM     11  C   UNL d   1     -17.427 -30.925 -23.290  0.00  0.00     0.074 A 
ENDROOT
BRANCH   4  12
ATOM     12  C   UNL d   1     -13.108 -29.506 -22.297  0.00  0.00     0.001 A 
ATOM     13  C   UNL d   1     -12.919 -29.022 -21.442  0.00  0.00     0.054 A 
ATOM     14  C   UNL d   1     -11.975 -28.887 -21.142  0.00  0.00     0.102 A 
ATOM     15  C   UNL d   1     -11.220 -29.235 -21.697  0.00  0.00     0.099 A 
ATOM     16  C   UNL d   1     -11.408 -29.719 -22.551  0.00  0.00     0.040 A 
ATOM     17  C   UNL d   1     -12.352 -29.855 -22.851  0.00  0.00     0.017 A 
BRANCH  14  18
ATOM     18  O   UNL d   1     -11.787 -28.403 -20.288  0.00  0.00    -0.353 OA
ATOM     19  C   UNL d   1     -12.542 -28.108 -19.703  0.00  0.00     0.210 C 
ENDBRANCH  14  18
BRANCH  15  20
ATOM     20  O   UNL d   1     -10.275 -29.099 -21.397  0.00  0.00    -0.358 OA
ATOM     21  H   UNL d   1     -10.127 -28.605 -21.054  0.00  0.00     0.217 HD
ENDBRANCH  15  20
ENDBRANCH   4  12
BRANCH   8  22
ATOM     22  O   UNL d   1     -17.381 -29.319 -24.034  0.00  0.00    -0.360 OA
ATOM     23  H   UNL d   1     -17.980 -29.196 -23.932  0.00  0.00     0.217 HD
ENDBRANCH   8  22
BRANCH  10  24
ATOM     24  O   UNL d   1     -17.414 -32.522 -22.527  0.00  0.00    -0.361 OA
ATOM     25  H   UNL d   1     -17.409 -32.737 -21.946  0.00  0.00     0.217 HD
ENDBRANCH  10  24
TORSDOF 5
ENDMDL
MODEL 4
REMARK VINA RESULT:    -8.955      1.655      2.170
REMARK INTER + INTRA:          -8.864
REMARK INTER:                 -10.714
REMARK INTRA:                   1.850
REMARK UNBOUND:                 1.923
REMARK  5 active torsions:
REMARK  status: ('A' for Active; 'I' for Inactive)
REMARK    1  A    between atoms: O_2  and  C_13 
REMARK    2  A    between atoms: O_3  and  C_19 
REMARK    3  A    between atoms: O_5  and  C_17 
REMARK    4  A    between atoms: O_6  and  C_21 
REMARK    5  A    between atoms: C_8  and  C_10 
ROOT
ATOM      1  O   UNL d   1     -14.302 -29.024 -21.780  0.00  0.00    -0.309 OA
ATOM      2  O   UNL d   1     -11.821 -30.096 -23.083  0.00  0.00    -0.287 OA
ATOM      3  C   UNL d   1     -12.575 -29.071 -21.907  0.00  0.00     0.081 A 
ATOM      4  C   UNL d   1     -14.375 -29.692 -22.522  0.00  0.00     0.090 A 
ATOM      5  C   UNL d   1     -13.402 -28.714 -21.473  0.00  0.00     0.095 A 
ATOM      6  C   UNL d   1     -12.648 -29.739 -22.649  0.00  0.00     0.190 A 
ATOM      7  C   UNL d   1     -13.548 -30.049 -22.956  0.00  0.00     0.094 A 
ATOM      8  C   UNL d   1     -11.632 -28.757 -21.598  0.00  0.00     0.085 A 
ATOM      9  C   UNL d   1     -13.343 -28.019 -20.700  0.00  0.00     0.075 A 
ATOM     10  C   UNL d   1     -12.409 -27.691 -20.375  0.00  0.00     0.071 A 
ATOM     11  C   UNL d   1     -11.548 -28.063 -20.826  0.00  0.00     0.074 A 
ENDROOT
BRANCH   4  12
ATOM     12  C   UNL d   1     -15.274 -30.002 -22.829  0.00  0.00     0.001 A 
ATOM     13  C   UNL d   1     -15.599 -30.915 -22.583  0.00  0.00     0.054 A 
ATOM     14  C   UNL d   1     -16.499 -31.225 -22.890  0.00  0.00     0.102 A 
ATOM     15  C   UNL d   1     -17.074 -30.622 -23.443  0.00  0.00     0.099 A 
ATOM     16  C   UNL d   1     -16.749 -29.709 -23.689  0.00  0.00     0.040 A 
ATOM     17  C   UNL d   1     -15.849 -29.399 -23.382  0.00  0.00     0.017 A 
BRANCH  14  18
ATOM     18  O   UNL d   1     -16.824 -32.138 -22.644  0.00  0.00    -0.353 OA
ATOM     19  C   UNL d   1     -16.383 -32.643 -21.902  0.00  0.00     0.210 C 
ENDBRANCH  14  18
BRANCH  15  20
ATOM     20  O   UNL d   1     -17.973 -30.932 -23.751  0.00  0.00    -0.358 OA
ATOM     21  H   UNL d   1     -18.254 -31.404 -23.462  0.00  0.00     0.217 HD
ENDBRANCH  15  20
ENDBRANCH   4  12
BRANCH   8  22
ATOM     22  O   UNL d   1     -10.812 -29.121 -22.039  0.00  0.00    -0.360 OA
ATOM     23  H   UNL d   1     -10.304 -28.769 -22.088  0.00  0.00     0.217 HD
ENDBRANCH   8  22
BRANCH  10  24
ATOM     24  O   UNL d   1     -12.341 -27.023 -19.633  0.00  0.00    -0.361 OA
ATOM     25  H   UNL d   1     -11.814 -26.708 -19.548  0.00  0.00     0.217 HD
ENDBRANCH  10  24
TORSDOF 5
ENDMDL
MODEL 5
REMARK VINA RESULT:    -8.951     10.568     11.725
REMARK INTER + INTRA:          -8.859
REMARK INTER:                 -11.038
REMARK INTRA:                   2.178
REMARK UNBOUND:                 1.923
REMARK  5 active torsions:
REMARK  status: ('A' for Active; 'I' for Inactive)
REMARK    1  A    between atoms: O_2  and  C_13 
REMARK    2  A    between atoms: O_3  and  C_19 
REMARK    3  A    between atoms: O_5  and  C_17 
REMARK    4  A    between atoms: O_6  and  C_21 
REMARK    5  A    between atoms: C_8  and  C_10 
ROOT
ATOM      1  O   UNL d   1     -20.999 -35.420 -15.529  0.00  0.00    -0.309 OA
ATOM      2  O   UNL d   1     -20.728 -32.630 -14.459  0.00  0.00    -0.287 OA
ATOM      3  C   UNL d   1     -20.209 -33.878 -15.542  0.00  0.00     0.081 A 
ATOM      4  C   UNL d   1     -21.608 -35.101 -14.803  0.00  0.00     0.090 A 
ATOM      5  C   UNL d   1     -20.300 -34.808 -15.899  0.00  0.00     0.095 A 
ATOM      6  C   UNL d   1     -20.818 -33.560 -14.816  0.00  0.00     0.190 A 
ATOM      7  C   UNL d   1     -21.518 -34.172 -14.446  0.00  0.00     0.094 A 
ATOM      8  C   UNL d   1     -19.485 -33.230 -15.918  0.00  0.00     0.085 A 
ATOM      9  C   UNL d   1     -19.673 -35.154 -16.656  0.00  0.00     0.075 A 
ATOM     10  C   UNL d   1     -18.942 -34.523 -17.046  0.00  0.00     0.071 A 
ATOM     11  C   UNL d   1     -18.848 -33.555 -16.674  0.00  0.00     0.074 A 
ENDROOT
BRANCH   4  12
ATOM     12  C   UNL d   1     -22.308 -35.713 -14.433  0.00  0.00     0.001 A 
ATOM     13  C   UNL d   1     -22.582 -35.637 -13.474  0.00  0.00     0.054 A 
ATOM     14  C   UNL d   1     -23.281 -36.249 -13.105  0.00  0.00     0.102 A 
ATOM     15  C   UNL d   1     -23.707 -36.936 -13.694  0.00  0.00     0.099 A 
ATOM     16  C   UNL d   1     -23.432 -37.012 -14.652  0.00  0.00     0.040 A 
ATOM     17  C   UNL d   1     -22.733 -36.400 -15.022  0.00  0.00     0.017 A 
BRANCH  14  18
ATOM     18  O   UNL d   1     -23.555 -36.173 -12.146  0.00  0.00    -0.353 OA
ATOM     19  C   UNL d   1     -23.468 -35.299 -11.668  0.00  0.00     0.210 C 
ENDBRANCH  14  18
BRANCH  15  20
ATOM     20  O   UNL d   1     -24.406 -37.548 -13.324  0.00  0.00    -0.358 OA
ATOM     21  H   UNL d   1     -24.688 -37.957 -13.695  0.00  0.00     0.217 HD
ENDBRANCH  15  20
ENDBRANCH   4  12
BRANCH   8  22
ATOM     22  O   UNL d   1     -19.404 -32.303 -15.553  0.00  0.00    -0.360 OA
ATOM     23  H   UNL d   1     -18.924 -32.153 -15.191  0.00  0.00     0.217 HD
ENDBRANCH   8  22
BRANCH  10  24
ATOM     24  O   UNL d   1     -18.335 -34.845 -17.773  0.00  0.00    -0.361 OA
ATOM     25  H   UNL d   1     -18.342 -35.442 -17.940  0.00  0.00     0.217 HD
ENDBRANCH  10  24
TORSDOF 5
ENDMDL
