MODEL 1
REMARK VINA RESULT:    -9.264      0.000      0.000
REMARK INTER + INTRA:          -9.294
REMARK INTER:                 -10.666
REMARK INTRA:                   1.371
REMARK UNBOUND:                 1.053
REMARK  3 active torsions:
REMARK  status: ('A' for Active; 'I' for Inactive)
REMARK    1  A    between atoms: O_2  and  C_10 
REMARK    2  A    between atoms: O_4  and  C_13 
REMARK    3  A    between atoms: C_7  and  C_9 
ROOT
ATOM      1  O   UNL d   1      -2.278   7.773   4.000  0.00  0.00    -0.309 OA
ATOM      2  O   UNL d   1       0.222   9.423   4.175  0.00  0.00    -0.287 OA
ATOM      3  C   UNL d   1      -0.554   7.900   3.895  0.00  0.00     0.081 A 
ATOM      4  C   UNL d   1      -1.387   7.350   3.837  0.00  0.00     0.095 A 
ATOM      5  C   UNL d   1      -2.336   8.746   4.222  0.00  0.00     0.090 A 
ATOM      6  C   UNL d   1      -0.612   8.873   4.116  0.00  0.00     0.190 A 
ATOM      7  C   UNL d   1       0.381   7.473   3.727  0.00  0.00     0.085 A 
ATOM      8  C   UNL d   1      -1.503   9.297   4.280  0.00  0.00     0.094 A 
ATOM      9  C   UNL d   1      -1.343   6.335   3.607  0.00  0.00     0.075 A 
ATOM     10  C   UNL d   1      -0.418   5.887   3.435  0.00  0.00     0.071 A 
ATOM     11  C   UNL d   1       0.449   6.459   3.496  0.00  0.00     0.074 A 
ENDROOT
BRANCH   5  12
ATOM     12  C   UNL d   1      -3.227   9.170   4.385  0.00  0.00    -0.002 A 
ATOM     13  C   UNL d   1      -4.054   8.756   4.006  0.00  0.00     0.014 A 
ATOM     14  C   UNL d   1      -4.945   9.179   4.170  0.00  0.00     0.001 A 
ATOM     15  C   UNL d   1      -5.009  10.017   4.713  0.00  0.00     0.000 A 
ATOM     16  C   UNL d   1      -4.181  10.431   5.092  0.00  0.00     0.001 A 
ATOM     17  C   UNL d   1      -3.290  10.007   4.928  0.00  0.00     0.014 A 
ENDBRANCH   5  12
BRANCH   7  18
ATOM     18  O   UNL d   1       1.208   8.032   3.788  0.00  0.00    -0.360 OA
ATOM     19  H   UNL d   1       1.414   8.334   3.288  0.00  0.00     0.217 HD
ENDBRANCH   7  18
BRANCH  10  20
ATOM     20  O   UNL d   1      -0.364   4.913   3.213  0.00  0.00    -0.361 OA
ATOM     21  H   UNL d   1       0.188   4.639   3.152  0.00  0.00     0.217 HD
ENDBRANCH  10  20
TORSDOF 3
ENDMDL
MODEL 2
REMARK VINA RESULT:    -8.980     49.601     51.384
REMARK INTER + INTRA:          -8.977
REMARK INTER:                 -10.109
REMARK INTRA:                   1.133
REMARK UNBOUND:                 1.053
REMARK  3 active torsions:
REMARK  status: ('A' for Active; 'I' for Inactive)
REMARK    1  A    between atoms: O_2  and  C_10 
REMARK    2  A    between atoms: O_4  and  C_13 
REMARK    3  A    between atoms: C_7  and  C_9 
ROOT
ATOM      1  O   UNL d   1     -21.497 -34.694 -13.956  0.00  0.00    -0.309 OA
ATOM      2  O   UNL d   1     -23.220 -36.704 -15.367  0.00  0.00    -0.287 OA
ATOM      3  C   UNL d   1     -22.830 -35.800 -13.942  0.00  0.00     0.081 A 
ATOM      4  C   UNL d   1     -22.256 -35.130 -13.472  0.00  0.00     0.095 A 
ATOM      5  C   UNL d   1     -21.312 -34.928 -14.910  0.00  0.00     0.090 A 
ATOM      6  C   UNL d   1     -22.645 -36.034 -14.897  0.00  0.00     0.190 A 
ATOM      7  C   UNL d   1     -23.623 -36.261 -13.451  0.00  0.00     0.085 A 
ATOM      8  C   UNL d   1     -21.887 -35.598 -15.381  0.00  0.00     0.094 A 
ATOM      9  C   UNL d   1     -22.435 -34.875 -12.477  0.00  0.00     0.075 A 
ATOM     10  C   UNL d   1     -23.224 -35.325 -11.967  0.00  0.00     0.071 A 
ATOM     11  C   UNL d   1     -23.822 -36.022 -12.456  0.00  0.00     0.074 A 
ENDROOT
BRANCH   5  12
ATOM     12  C   UNL d   1     -20.554 -34.492 -15.394  0.00  0.00    -0.002 A 
ATOM     13  C   UNL d   1     -20.500 -33.495 -15.445  0.00  0.00     0.014 A 
ATOM     14  C   UNL d   1     -19.741 -33.059 -15.929  0.00  0.00     0.001 A 
ATOM     15  C   UNL d   1     -19.036 -33.621 -16.362  0.00  0.00     0.000 A 
ATOM     16  C   UNL d   1     -19.090 -34.618 -16.312  0.00  0.00     0.001 A 
ATOM     17  C   UNL d   1     -19.849 -35.054 -15.827  0.00  0.00     0.014 A 
ENDBRANCH   5  12
BRANCH   7  18
ATOM     18  O   UNL d   1     -24.191 -36.930 -13.931  0.00  0.00    -0.360 OA
ATOM     19  H   UNL d   1     -24.809 -36.878 -13.918  0.00  0.00     0.217 HD
ENDBRANCH   7  18
BRANCH  10  20
ATOM     20  O   UNL d   1     -23.405 -35.088 -11.012  0.00  0.00    -0.361 OA
ATOM     21  H   UNL d   1     -23.430 -35.534 -10.582  0.00  0.00     0.217 HD
ENDBRANCH  10  20
TORSDOF 3
ENDMDL
MODEL 3
REMARK VINA RESULT:    -8.960     46.514     48.541
REMARK INTER + INTRA:          -8.955
REMARK INTER:                  -9.964
REMARK INTRA:                   1.009
REMARK UNBOUND:                 1.053
REMARK  3 active torsions:
REMARK  status: ('A' for Active; 'I' for Inactive)
REMARK    1  A    between atoms: O_2  and  C_10 
REMARK    2  A    between atoms: O_4  and  C_13 
REMARK    3  A    between atoms: C_7  and  C_9 
ROOT
ATOM      1  O   UNL d   1     -14.372 -30.419 -22.469  0.00  0.00    -0.309 OA
ATOM      2  O   UNL d   1     -15.865 -28.292 -23.967  0.00  0.00    -0.287 OA
ATOM      3  C   UNL d   1     -15.823 -29.858 -23.229  0.00  0.00     0.081 A 
ATOM      4  C   UNL d   1     -15.326 -30.567 -22.729  0.00  0.00     0.095 A 
ATOM      5  C   UNL d   1     -13.915 -29.562 -22.708  0.00  0.00     0.090 A 
ATOM      6  C   UNL d   1     -15.367 -29.001 -23.468  0.00  0.00     0.190 A 
ATOM      7  C   UNL d   1     -16.817 -29.998 -23.507  0.00  0.00     0.085 A 
ATOM      8  C   UNL d   1     -14.413 -28.853 -23.207  0.00  0.00     0.094 A 
ATOM      9  C   UNL d   1     -15.788 -31.465 -22.473  0.00  0.00     0.075 A 
ATOM     10  C   UNL d   1     -16.781 -31.626 -22.742  0.00  0.00     0.071 A 
ATOM     11  C   UNL d   1     -17.299 -30.888 -23.262  0.00  0.00     0.074 A 
ENDROOT
BRANCH   5  12
ATOM     12  C   UNL d   1     -12.961 -29.414 -22.447  0.00  0.00    -0.002 A 
ATOM     13  C   UNL d   1     -12.743 -28.883 -21.629  0.00  0.00     0.014 A 
ATOM     14  C   UNL d   1     -11.789 -28.735 -21.368  0.00  0.00     0.001 A 
ATOM     15  C   UNL d   1     -11.053 -29.118 -21.926  0.00  0.00     0.000 A 
ATOM     16  C   UNL d   1     -11.271 -29.650 -22.744  0.00  0.00     0.001 A 
ATOM     17  C   UNL d   1     -12.225 -29.798 -23.005  0.00  0.00     0.014 A 
ENDBRANCH   5  12
BRANCH   7  18
ATOM     18  O   UNL d   1     -17.305 -29.282 -24.006  0.00  0.00    -0.360 OA
ATOM     19  H   UNL d   1     -17.576 -29.412 -24.548  0.00  0.00     0.217 HD
ENDBRANCH   7  18
BRANCH  10  20
ATOM     20  O   UNL d   1     -17.234 -32.485 -22.501  0.00  0.00    -0.361 OA
ATOM     21  H   UNL d   1     -17.782 -32.475 -22.212  0.00  0.00     0.217 HD
ENDBRANCH  10  20
TORSDOF 3
ENDMDL
MODEL 4
REMARK VINA RESULT:    -8.936      8.005      9.763
REMARK INTER + INTRA:          -8.928
REMARK INTER:                 -10.091
REMARK INTRA:                   1.164
REMARK UNBOUND:                 1.053
REMARK  3 active torsions:
REMARK  status: ('A' for Active; 'I' for Inactive)
REMARK    1  A    between atoms: O_2  and  C_10 
REMARK    2  A    between atoms: O_4  and  C_13 
REMARK    3  A    between atoms: C_7  and  C_9 
ROOT
ATOM      1  O   UNL d   1      -8.874   2.972   3.063  0.00  0.00    -0.309 OA
ATOM      2  O   UNL d   1     -10.625   4.637   1.285  0.00  0.00    -0.287 OA
ATOM      3  C   UNL d   1     -10.328   3.161   2.141  0.00  0.00     0.081 A 
ATOM      4  C   UNL d   1      -9.745   2.606   2.734  0.00  0.00     0.095 A 
ATOM      5  C   UNL d   1      -8.587   3.892   2.799  0.00  0.00     0.090 A 
ATOM      6  C   UNL d   1     -10.041   4.082   1.877  0.00  0.00     0.190 A 
ATOM      7  C   UNL d   1     -11.238   2.794   1.791  0.00  0.00     0.085 A 
ATOM      8  C   UNL d   1      -9.170   4.447   2.206  0.00  0.00     0.094 A 
ATOM      9  C   UNL d   1     -10.031   1.645   3.018  0.00  0.00     0.075 A 
ATOM     10  C   UNL d   1     -10.936   1.258   2.679  0.00  0.00     0.071 A 
ATOM     11  C   UNL d   1     -11.544   1.836   2.062  0.00  0.00     0.074 A 
ENDROOT
BRANCH   5  12
ATOM     12  C   UNL d   1      -7.716   4.258   3.128  0.00  0.00    -0.002 A 
ATOM     13  C   UNL d   1      -7.495   4.223   4.102  0.00  0.00     0.014 A 
ATOM     14  C   UNL d   1      -6.625   4.588   4.431  0.00  0.00     0.001 A 
ATOM     15  C   UNL d   1      -5.975   4.989   3.785  0.00  0.00     0.000 A 
ATOM     16  C   UNL d   1      -6.196   5.024   2.811  0.00  0.00     0.001 A 
ATOM     17  C   UNL d   1      -7.066   4.658   2.482  0.00  0.00     0.014 A 
ENDBRANCH   5  12
BRANCH   7  18
ATOM     18  O   UNL d   1     -11.813   3.358   1.199  0.00  0.00    -0.360 OA
ATOM     19  H   UNL d   1     -12.179   3.090   0.777  0.00  0.00     0.217 HD
ENDBRANCH   7  18
BRANCH  10  20
ATOM     20  O   UNL d   1     -11.220   0.336   2.946  0.00  0.00    -0.361 OA
ATOM     21  H   UNL d   1     -10.801  -0.067   3.161  0.00  0.00     0.217 HD
ENDBRANCH  10  20
TORSDOF 3
ENDMDL
MODEL 5
REMARK VINA RESULT:    -8.809     49.635     51.325
REMARK INTER + INTRA:          -8.786
REMARK INTER:                  -9.939
REMARK INTRA:                   1.153
REMARK UNBOUND:                 1.053
REMARK  3 active torsions:
REMARK  status: ('A' for Active; 'I' for Inactive)
REMARK    1  A    between atoms: O_2  and  C_10 
REMARK    2  A    between atoms: O_4  and  C_13 
REMARK    3  A    between atoms: C_7  and  C_9 
ROOT
ATOM      1  O   UNL d   1     -21.842 -35.523 -14.837  0.00  0.00    -0.309 OA
ATOM      2  O   UNL d   1     -21.997 -34.175 -12.161  0.00  0.00    -0.287 OA
ATOM      3  C   UNL d   1     -22.570 -35.374 -13.272  0.00  0.00     0.081 A 
ATOM      4  C   UNL d   1     -22.519 -35.823 -14.164  0.00  0.00     0.095 A 
ATOM      5  C   UNL d   1     -21.217 -34.773 -14.617  0.00  0.00     0.090 A 
ATOM      6  C   UNL d   1     -21.946 -34.624 -13.053  0.00  0.00     0.190 A 
ATOM      7  C   UNL d   1     -23.269 -35.676 -12.562  0.00  0.00     0.085 A 
ATOM      8  C   UNL d   1     -21.269 -34.324 -13.725  0.00  0.00     0.094 A 
ATOM      9  C   UNL d   1     -23.163 -36.605 -14.408  0.00  0.00     0.075 A 
ATOM     10  C   UNL d   1     -23.870 -36.923 -13.712  0.00  0.00     0.071 A 
ATOM     11  C   UNL d   1     -23.924 -36.455 -12.784  0.00  0.00     0.074 A 
ENDROOT
BRANCH   5  12
ATOM     12  C   UNL d   1     -20.541 -34.473 -15.290  0.00  0.00    -0.002 A 
ATOM     13  C   UNL d   1     -19.922 -35.138 -15.708  0.00  0.00     0.014 A 
ATOM     14  C   UNL d   1     -19.246 -34.838 -16.381  0.00  0.00     0.001 A 
ATOM     15  C   UNL d   1     -19.188 -33.873 -16.635  0.00  0.00     0.000 A 
ATOM     16  C   UNL d   1     -19.807 -33.208 -16.217  0.00  0.00     0.001 A 
ATOM     17  C   UNL d   1     -20.483 -33.508 -15.544  0.00  0.00     0.014 A 
ENDBRANCH   5  12
BRANCH   7  18
ATOM     18  O   UNL d   1     -23.312 -35.219 -11.673  0.00  0.00    -0.360 OA
ATOM     19  H   UNL d   1     -23.854 -35.168 -11.377  0.00  0.00     0.217 HD
ENDBRANCH   7  18
BRANCH  10  20
ATOM     20  O   UNL d   1     -24.493 -37.673 -13.936  0.00  0.00    -0.361 OA
ATOM     21  H   UNL d   1     -24.841 -37.643 -14.447  0.00  0.00     0.217 HD
ENDBRANCH  10  20
TORSDOF 3
ENDMDL
