MODEL 1
REMARK VINA RESULT:   -12.346      0.000      0.000
REMARK INTER + INTRA:          -7.749
REMARK INTER:                 -16.385
REMARK INTRA:                   8.636
REMARK UNBOUND:                 8.927
REMARK  9 active torsions:
REMARK  status: ('A' for Active; 'I' for Inactive)
REMARK    1  A    between atoms: O_3  and  C_17 
REMARK    2  A    between atoms: O_4  and  C_18 
REMARK    3  A    between atoms: O_5  and  C_19 
REMARK    4  A    between atoms: O_7  and  C_32 
REMARK    5  A    between atoms: O_9  and  C_36 
REMARK    6  A    between atoms: O_10  and  C_40 
REMARK    7  A    between atoms: C_11  and  C_13 
REMARK    8  A    between atoms: C_15  and  C_20 
REMARK    9  A    between atoms: C_22  and  C_29 
ROOT
ATOM      1  O   UNL d   1     -10.000   5.403   3.771  0.00  0.00    -0.308 OA
ATOM      2  O   UNL d   1     -11.338   3.662   1.627  0.00  0.00    -0.287 OA
ATOM      3  C   UNL d   1      -8.866   4.090   4.070  0.00  0.00     0.045 A 
ATOM      4  C   UNL d   1      -9.651   4.444   3.561  0.00  0.00     0.107 A 
ATOM      5  C   UNL d   1     -10.089   3.880   2.862  0.00  0.00     0.082 A 
ATOM      6  C   UNL d   1      -8.520   3.171   3.879  0.00  0.00     0.082 A 
ATOM      7  C   UNL d   1      -9.744   2.961   2.671  0.00  0.00     0.085 A 
ATOM      8  C   UNL d   1      -8.959   2.607   3.180  0.00  0.00     0.075 A 
ATOM      9  C   UNL d   1     -10.817   5.779   3.246  0.00  0.00     0.090 A 
ATOM     10  C   UNL d   1     -10.907   4.235   2.325  0.00  0.00     0.190 A 
ATOM     11  C   UNL d   1     -11.274   5.191   2.517  0.00  0.00     0.094 A 
ENDROOT
BRANCH   3  12
ATOM     12  C   UNL d   1      -8.427   4.654   4.769  0.00  0.00     0.014 A 
ATOM     13  C   UNL d   1      -7.662   5.249   4.524  0.00  0.00     0.029 A 
ATOM     14  C   UNL d   1      -7.223   5.813   5.223  0.00  0.00    -0.001 A 
ATOM     15  C   UNL d   1      -7.550   5.782   6.168  0.00  0.00     0.017 A 
ATOM     16  C   UNL d   1      -8.315   5.187   6.413  0.00  0.00     0.038 A 
ATOM     17  C   UNL d   1      -8.754   4.623   5.714  0.00  0.00     0.076 A 
BRANCH  14  18
ATOM     18  C   UNL d   1      -6.458   6.409   4.978  0.00  0.00     0.090 A 
ATOM     19  O   UNL d   1      -6.604   7.392   4.870  0.00  0.00    -0.309 OA
ATOM     20  C   UNL d   1      -5.839   7.987   4.625  0.00  0.00     0.095 A 
ATOM     21  C   UNL d   1      -4.928   7.599   4.487  0.00  0.00     0.081 A 
ATOM     22  C   UNL d   1      -6.007   9.010   4.516  0.00  0.00     0.075 A 
ATOM     23  C   UNL d   1      -4.782   6.616   4.595  0.00  0.00     0.190 A 
ATOM     24  C   UNL d   1      -4.121   8.207   4.231  0.00  0.00     0.085 A 
ATOM     25  O   UNL d   1      -3.871   6.228   4.458  0.00  0.00    -0.287 OA
ATOM     26  C   UNL d   1      -5.547   6.021   4.840  0.00  0.00     0.094 A 
ATOM     27  C   UNL d   1      -4.266   9.232   4.117  0.00  0.00     0.074 A 
ATOM     28  C   UNL d   1      -5.215   9.637   4.260  0.00  0.00     0.071 A 
BRANCH  24  29
ATOM     29  O   UNL d   1      -3.214   7.808   4.096  0.00  0.00    -0.360 OA
ATOM     30  H   UNL d   1      -3.098   7.465   3.593  0.00  0.00     0.217 HD
ENDBRANCH  24  29
BRANCH  28  31
ATOM     31  O   UNL d   1      -5.365  10.619   4.153  0.00  0.00    -0.361 OA
ATOM     32  H   UNL d   1      -5.844  10.892   4.437  0.00  0.00     0.217 HD
ENDBRANCH  28  31
ENDBRANCH  14  18
BRANCH  17  33
ATOM     33  O   UNL d   1      -9.519   4.028   5.959  0.00  0.00    -0.360 OA
ATOM     34  H   UNL d   1      -9.876   4.167   6.446  0.00  0.00     0.217 HD
ENDBRANCH  17  33
ENDBRANCH   3  12
BRANCH   6  35
ATOM     35  O   UNL d   1      -7.735   2.817   4.388  0.00  0.00    -0.360 OA
ATOM     36  H   UNL d   1      -7.808   2.340   4.778  0.00  0.00     0.217 HD
ENDBRANCH   6  35
BRANCH   9  37
ATOM     37  C   UNL d   1     -11.159   6.698   3.440  0.00  0.00    -0.002 A 
ATOM     38  C   UNL d   1     -11.235   7.014   4.386  0.00  0.00     0.017 A 
ATOM     39  C   UNL d   1     -11.577   7.932   4.581  0.00  0.00     0.037 A 
ATOM     40  C   UNL d   1     -11.845   8.536   3.829  0.00  0.00     0.065 A 
ATOM     41  C   UNL d   1     -11.769   8.220   2.883  0.00  0.00     0.037 A 
ATOM     42  C   UNL d   1     -11.426   7.301   2.689  0.00  0.00     0.017 A 
BRANCH  40  43
ATOM     43  O   UNL d   1     -12.188   9.455   4.023  0.00  0.00    -0.361 OA
ATOM     44  H   UNL d   1     -11.791   9.930   4.072  0.00  0.00     0.217 HD
ENDBRANCH  40  43
ENDBRANCH   9  37
BRANCH   7  45
ATOM     45  O   UNL d   1     -10.182   2.397   1.972  0.00  0.00    -0.360 OA
ATOM     46  H   UNL d   1     -10.459   2.665   1.486  0.00  0.00     0.217 HD
ENDBRANCH   7  45
TORSDOF 9
ENDMDL
MODEL 2
REMARK VINA RESULT:   -11.984      2.658      5.839
REMARK INTER + INTRA:          -7.261
REMARK INTER:                 -15.793
REMARK INTRA:                   8.532
REMARK UNBOUND:                 8.927
REMARK  9 active torsions:
REMARK  status: ('A' for Active; 'I' for Inactive)
REMARK    1  A    between atoms: O_3  and  C_17 
REMARK    2  A    between atoms: O_4  and  C_18 
REMARK    3  A    between atoms: O_5  and  C_19 
REMARK    4  A    between atoms: O_7  and  C_32 
REMARK    5  A    between atoms: O_9  and  C_36 
REMARK    6  A    between atoms: O_10  and  C_40 
REMARK    7  A    between atoms: C_11  and  C_13 
REMARK    8  A    between atoms: C_15  and  C_20 
REMARK    9  A    between atoms: C_22  and  C_29 
ROOT
ATOM      1  O   UNL d   1      -6.405   7.157   5.614  0.00  0.00    -0.308 OA
ATOM      2  O   UNL d   1      -7.748   6.391   8.265  0.00  0.00    -0.287 OA
ATOM      3  C   UNL d   1      -5.773   8.600   6.399  0.00  0.00     0.045 A 
ATOM      4  C   UNL d   1      -6.311   7.759   6.459  0.00  0.00     0.107 A 
ATOM      5  C   UNL d   1      -6.750   7.506   7.321  0.00  0.00     0.082 A 
ATOM      6  C   UNL d   1      -5.673   9.188   7.202  0.00  0.00     0.082 A 
ATOM      7  C   UNL d   1      -6.651   8.094   8.124  0.00  0.00     0.085 A 
ATOM      8  C   UNL d   1      -6.113   8.935   8.064  0.00  0.00     0.075 A 
ATOM      9  C   UNL d   1      -6.964   6.280   5.668  0.00  0.00     0.090 A 
ATOM     10  C   UNL d   1      -7.314   6.634   7.398  0.00  0.00     0.190 A 
ATOM     11  C   UNL d   1      -7.422   6.016   6.567  0.00  0.00     0.094 A 
ENDROOT
BRANCH   3  12
ATOM     12  C   UNL d   1      -5.334   8.852   5.537  0.00  0.00     0.014 A 
ATOM     13  C   UNL d   1      -4.396   8.560   5.349  0.00  0.00     0.029 A 
ATOM     14  C   UNL d   1      -3.957   8.813   4.487  0.00  0.00    -0.001 A 
ATOM     15  C   UNL d   1      -4.455   9.358   3.813  0.00  0.00     0.017 A 
ATOM     16  C   UNL d   1      -5.393   9.650   4.001  0.00  0.00     0.038 A 
ATOM     17  C   UNL d   1      -5.832   9.398   4.863  0.00  0.00     0.076 A 
BRANCH  14  18
ATOM     18  C   UNL d   1      -3.019   8.520   4.299  0.00  0.00     0.090 A 
ATOM     19  O   UNL d   1      -2.823   7.556   4.121  0.00  0.00    -0.309 OA
ATOM     20  C   UNL d   1      -1.885   7.263   3.932  0.00  0.00     0.095 A 
ATOM     21  C   UNL d   1      -1.144   7.935   3.922  0.00  0.00     0.081 A 
ATOM     22  C   UNL d   1      -1.696   6.255   3.749  0.00  0.00     0.075 A 
ATOM     23  C   UNL d   1      -1.341   8.899   4.100  0.00  0.00     0.190 A 
ATOM     24  C   UNL d   1      -0.163   7.645   3.728  0.00  0.00     0.085 A 
ATOM     25  O   UNL d   1      -0.600   9.571   4.090  0.00  0.00    -0.287 OA
ATOM     26  C   UNL d   1      -2.279   9.192   4.289  0.00  0.00     0.094 A 
ATOM     27  C   UNL d   1       0.050   6.643   3.541  0.00  0.00     0.074 A 
ATOM     28  C   UNL d   1      -0.722   5.943   3.552  0.00  0.00     0.071 A 
BRANCH  24  29
ATOM     29  O   UNL d   1       0.570   8.325   3.720  0.00  0.00    -0.360 OA
ATOM     30  H   UNL d   1       0.882   8.440   3.196  0.00  0.00     0.217 HD
ENDBRANCH  24  29
BRANCH  28  31
ATOM     31  O   UNL d   1      -0.529   4.978   3.374  0.00  0.00    -0.361 OA
ATOM     32  H   UNL d   1      -0.235   4.811   2.854  0.00  0.00     0.217 HD
ENDBRANCH  28  31
ENDBRANCH  14  18
BRANCH  17  33
ATOM     33  O   UNL d   1      -6.770   9.690   5.051  0.00  0.00    -0.360 OA
ATOM     34  H   UNL d   1      -6.946   9.809   5.634  0.00  0.00     0.217 HD
ENDBRANCH  17  33
ENDBRANCH   3  12
BRANCH   6  35
ATOM     35  O   UNL d   1      -5.135  10.028   7.143  0.00  0.00    -0.360 OA
ATOM     36  H   UNL d   1      -5.318  10.488   6.768  0.00  0.00     0.217 HD
ENDBRANCH   6  35
BRANCH   9  37
ATOM     37  C   UNL d   1      -7.061   5.694   4.863  0.00  0.00    -0.002 A 
ATOM     38  C   UNL d   1      -6.289   5.138   4.555  0.00  0.00     0.017 A 
ATOM     39  C   UNL d   1      -6.385   4.552   3.750  0.00  0.00     0.037 A 
ATOM     40  C   UNL d   1      -7.253   4.524   3.253  0.00  0.00     0.065 A 
ATOM     41  C   UNL d   1      -8.024   5.081   3.562  0.00  0.00     0.037 A 
ATOM     42  C   UNL d   1      -7.928   5.666   4.367  0.00  0.00     0.017 A 
BRANCH  40  43
ATOM     43  O   UNL d   1      -7.349   3.939   2.448  0.00  0.00    -0.361 OA
ATOM     44  H   UNL d   1      -7.907   3.716   2.291  0.00  0.00     0.217 HD
ENDBRANCH  40  43
ENDBRANCH   9  37
BRANCH   7  45
ATOM     45  O   UNL d   1      -7.090   7.842   8.986  0.00  0.00    -0.360 OA
ATOM     46  H   UNL d   1      -7.563   8.178   9.203  0.00  0.00     0.217 HD
ENDBRANCH   7  45
TORSDOF 9
ENDMDL
MODEL 3
REMARK VINA RESULT:   -11.738      1.707      2.660
REMARK INTER + INTRA:          -6.928
REMARK INTER:                 -15.603
REMARK INTRA:                   8.675
REMARK UNBOUND:                 8.927
REMARK  9 active torsions:
REMARK  status: ('A' for Active; 'I' for Inactive)
REMARK    1  A    between atoms: O_3  and  C_17 
REMARK    2  A    between atoms: O_4  and  C_18 
REMARK    3  A    between atoms: O_5  and  C_19 
REMARK    4  A    between atoms: O_7  and  C_32 
REMARK    5  A    between atoms: O_9  and  C_36 
REMARK    6  A    between atoms: O_10  and  C_40 
REMARK    7  A    between atoms: C_11  and  C_13 
REMARK    8  A    between atoms: C_15  and  C_20 
REMARK    9  A    between atoms: C_22  and  C_29 
ROOT
ATOM      1  O   UNL d   1      -9.154   5.766   4.654  0.00  0.00    -0.308 OA
ATOM      2  O   UNL d   1     -11.669   5.667   2.898  0.00  0.00    -0.287 OA
ATOM      3  C   UNL d   1      -8.258   5.010   3.341  0.00  0.00     0.045 A 
ATOM      4  C   UNL d   1      -9.124   5.366   3.693  0.00  0.00     0.107 A 
ATOM      5  C   UNL d   1      -9.945   5.336   3.123  0.00  0.00     0.082 A 
ATOM      6  C   UNL d   1      -8.214   4.623   2.420  0.00  0.00     0.082 A 
ATOM      7  C   UNL d   1      -9.901   4.949   2.202  0.00  0.00     0.085 A 
ATOM      8  C   UNL d   1      -9.035   4.593   1.850  0.00  0.00     0.075 A 
ATOM      9  C   UNL d   1     -10.052   6.139   5.028  0.00  0.00     0.090 A 
ATOM     10  C   UNL d   1     -10.853   5.703   3.476  0.00  0.00     0.190 A 
ATOM     11  C   UNL d   1     -10.908   6.107   4.434  0.00  0.00     0.094 A 
ENDROOT
BRANCH   3  12
ATOM     12  C   UNL d   1      -7.436   5.040   3.910  0.00  0.00     0.014 A 
ATOM     13  C   UNL d   1      -6.825   5.831   3.865  0.00  0.00     0.029 A 
ATOM     14  C   UNL d   1      -6.004   5.861   4.434  0.00  0.00    -0.001 A 
ATOM     15  C   UNL d   1      -5.793   5.101   5.049  0.00  0.00     0.017 A 
ATOM     16  C   UNL d   1      -6.404   4.311   5.095  0.00  0.00     0.038 A 
ATOM     17  C   UNL d   1      -7.226   4.281   4.525  0.00  0.00     0.076 A 
BRANCH  14  18
ATOM     18  C   UNL d   1      -5.393   6.652   4.389  0.00  0.00     0.090 A 
ATOM     19  O   UNL d   1      -4.405   6.517   4.314  0.00  0.00    -0.309 OA
ATOM     20  C   UNL d   1      -3.794   7.307   4.269  0.00  0.00     0.095 A 
ATOM     21  C   UNL d   1      -4.171   8.233   4.298  0.00  0.00     0.081 A 
ATOM     22  C   UNL d   1      -2.767   7.150   4.192  0.00  0.00     0.075 A 
ATOM     23  C   UNL d   1      -5.159   8.368   4.372  0.00  0.00     0.190 A 
ATOM     24  C   UNL d   1      -3.548   9.066   4.251  0.00  0.00     0.085 A 
ATOM     25  O   UNL d   1      -5.537   9.294   4.401  0.00  0.00    -0.287 OA
ATOM     26  C   UNL d   1      -5.770   7.577   4.417  0.00  0.00     0.094 A 
ATOM     27  C   UNL d   1      -2.517   8.933   4.174  0.00  0.00     0.074 A 
ATOM     28  C   UNL d   1      -2.124   7.968   4.144  0.00  0.00     0.071 A 
BRANCH  24  29
ATOM     29  O   UNL d   1      -3.936   9.987   4.281  0.00  0.00    -0.360 OA
ATOM     30  H   UNL d   1      -4.053  10.291   3.753  0.00  0.00     0.217 HD
ENDBRANCH  24  29
BRANCH  28  31
ATOM     31  O   UNL d   1      -1.137   7.829   4.070  0.00  0.00    -0.361 OA
ATOM     32  H   UNL d   1      -0.777   7.885   4.572  0.00  0.00     0.217 HD
ENDBRANCH  28  31
ENDBRANCH  14  18
BRANCH  17  33
ATOM     33  O   UNL d   1      -7.836   3.490   4.571  0.00  0.00    -0.360 OA
ATOM     34  H   UNL d   1      -7.617   2.938   4.749  0.00  0.00     0.217 HD
ENDBRANCH  17  33
ENDBRANCH   3  12
BRANCH   6  35
ATOM     35  O   UNL d   1      -7.348   4.267   2.068  0.00  0.00    -0.360 OA
ATOM     36  H   UNL d   1      -6.860   4.209   2.446  0.00  0.00     0.217 HD
ENDBRANCH   6  35
BRANCH   9  37
ATOM     37  C   UNL d   1     -10.092   6.525   5.950  0.00  0.00    -0.002 A 
ATOM     38  C   UNL d   1     -10.077   5.919   6.746  0.00  0.00     0.017 A 
ATOM     39  C   UNL d   1     -10.117   6.304   7.667  0.00  0.00     0.037 A 
ATOM     40  C   UNL d   1     -10.171   7.294   7.793  0.00  0.00     0.065 A 
ATOM     41  C   UNL d   1     -10.185   7.900   6.998  0.00  0.00     0.037 A 
ATOM     42  C   UNL d   1     -10.145   7.514   6.076  0.00  0.00     0.017 A 
BRANCH  40  43
ATOM     43  O   UNL d   1     -10.211   7.680   8.715  0.00  0.00    -0.361 OA
ATOM     44  H   UNL d   1     -10.531   7.389   9.160  0.00  0.00     0.217 HD
ENDBRANCH  40  43
ENDBRANCH   9  37
BRANCH   7  45
ATOM     45  O   UNL d   1     -10.722   4.919   1.633  0.00  0.00    -0.360 OA
ATOM     46  H   UNL d   1     -11.029   4.384   1.559  0.00  0.00     0.217 HD
ENDBRANCH   7  45
TORSDOF 9
ENDMDL
MODEL 4
REMARK VINA RESULT:   -11.640      3.206      5.854
REMARK INTER + INTRA:          -6.796
REMARK INTER:                 -15.737
REMARK INTRA:                   8.941
REMARK UNBOUND:                 8.927
REMARK  9 active torsions:
REMARK  status: ('A' for Active; 'I' for Inactive)
REMARK    1  A    between atoms: O_3  and  C_17 
REMARK    2  A    between atoms: O_4  and  C_18 
REMARK    3  A    between atoms: O_5  and  C_19 
REMARK    4  A    between atoms: O_7  and  C_32 
REMARK    5  A    between atoms: O_9  and  C_36 
REMARK    6  A    between atoms: O_10  and  C_40 
REMARK    7  A    between atoms: C_11  and  C_13 
REMARK    8  A    between atoms: C_15  and  C_20 
REMARK    9  A    between atoms: C_22  and  C_29 
ROOT
ATOM      1  O   UNL d   1      -5.981   7.705   6.702  0.00  0.00    -0.308 OA
ATOM      2  O   UNL d   1      -7.829   5.460   7.686  0.00  0.00    -0.287 OA
ATOM      3  C   UNL d   1      -6.180   7.092   5.064  0.00  0.00     0.045 A 
ATOM      4  C   UNL d   1      -6.393   7.016   6.038  0.00  0.00     0.107 A 
ATOM      5  C   UNL d   1      -6.995   6.286   6.362  0.00  0.00     0.082 A 
ATOM      6  C   UNL d   1      -6.568   6.439   4.414  0.00  0.00     0.082 A 
ATOM      7  C   UNL d   1      -7.383   5.632   5.713  0.00  0.00     0.085 A 
ATOM      8  C   UNL d   1      -7.169   5.709   4.739  0.00  0.00     0.075 A 
ATOM      9  C   UNL d   1      -6.199   7.632   7.718  0.00  0.00     0.090 A 
ATOM     10  C   UNL d   1      -7.226   6.194   7.373  0.00  0.00     0.190 A 
ATOM     11  C   UNL d   1      -6.826   6.871   8.056  0.00  0.00     0.094 A 
ENDROOT
BRANCH   3  12
ATOM     12  C   UNL d   1      -5.578   7.822   4.740  0.00  0.00     0.014 A 
ATOM     13  C   UNL d   1      -4.596   7.656   4.645  0.00  0.00     0.029 A 
ATOM     14  C   UNL d   1      -3.995   8.387   4.321  0.00  0.00    -0.001 A 
ATOM     15  C   UNL d   1      -4.375   9.282   4.091  0.00  0.00     0.017 A 
ATOM     16  C   UNL d   1      -5.356   9.448   4.185  0.00  0.00     0.038 A 
ATOM     17  C   UNL d   1      -5.958   8.718   4.510  0.00  0.00     0.076 A 
BRANCH  14  18
ATOM     18  C   UNL d   1      -3.013   8.221   4.227  0.00  0.00     0.090 A 
ATOM     19  O   UNL d   1      -2.683   7.316   3.957  0.00  0.00    -0.309 OA
ATOM     20  C   UNL d   1      -1.701   7.150   3.863  0.00  0.00     0.095 A 
ATOM     21  C   UNL d   1      -1.050   7.889   4.038  0.00  0.00     0.081 A 
ATOM     22  C   UNL d   1      -1.372   6.202   3.582  0.00  0.00     0.075 A 
ATOM     23  C   UNL d   1      -1.381   8.793   4.307  0.00  0.00     0.190 A 
ATOM     24  C   UNL d   1      -0.025   7.731   3.944  0.00  0.00     0.085 A 
ATOM     25  O   UNL d   1      -0.730   9.532   4.482  0.00  0.00    -0.287 OA
ATOM     26  C   UNL d   1      -2.362   8.959   4.402  0.00  0.00     0.094 A 
ATOM     27  C   UNL d   1       0.327   6.791   3.664  0.00  0.00     0.074 A 
ATOM     28  C   UNL d   1      -0.351   6.022   3.481  0.00  0.00     0.071 A 
BRANCH  24  29
ATOM     29  O   UNL d   1       0.617   8.477   4.121  0.00  0.00    -0.360 OA
ATOM     30  H   UNL d   1       1.072   8.403   4.537  0.00  0.00     0.217 HD
ENDBRANCH  24  29
BRANCH  28  31
ATOM     31  O   UNL d   1      -0.024   5.116   3.212  0.00  0.00    -0.361 OA
ATOM     32  H   UNL d   1      -0.109   4.916   2.631  0.00  0.00     0.217 HD
ENDBRANCH  28  31
ENDBRANCH  14  18
BRANCH  17  33
ATOM     33  O   UNL d   1      -6.940   8.884   4.604  0.00  0.00    -0.360 OA
ATOM     34  H   UNL d   1      -7.192   8.937   5.168  0.00  0.00     0.217 HD
ENDBRANCH  17  33
ENDBRANCH   3  12
BRANCH   6  35
ATOM     35  O   UNL d   1      -6.354   6.515   3.440  0.00  0.00    -0.360 OA
ATOM     36  H   UNL d   1      -5.763   6.535   3.253  0.00  0.00     0.217 HD
ENDBRANCH   6  35
BRANCH   9  37
ATOM     37  C   UNL d   1      -5.809   8.288   8.365  0.00  0.00    -0.002 A 
ATOM     38  C   UNL d   1      -5.463   7.972   9.248  0.00  0.00     0.017 A 
ATOM     39  C   UNL d   1      -5.073   8.627   9.895  0.00  0.00     0.037 A 
ATOM     40  C   UNL d   1      -5.029   9.598   9.658  0.00  0.00     0.065 A 
ATOM     41  C   UNL d   1      -5.375   9.913   8.774  0.00  0.00     0.037 A 
ATOM     42  C   UNL d   1      -5.765   9.257   8.128  0.00  0.00     0.017 A 
BRANCH  40  43
ATOM     43  O   UNL d   1      -4.639  10.254  10.305  0.00  0.00    -0.361 OA
ATOM     44  H   UNL d   1      -4.027  10.360  10.308  0.00  0.00     0.217 HD
ENDBRANCH  40  43
ENDBRANCH   9  37
BRANCH   7  45
ATOM     45  O   UNL d   1      -7.984   4.902   6.037  0.00  0.00    -0.360 OA
ATOM     46  H   UNL d   1      -7.863   4.312   5.890  0.00  0.00     0.217 HD
ENDBRANCH   7  45
TORSDOF 9
ENDMDL
MODEL 5
REMARK VINA RESULT:   -11.324     38.955     43.001
REMARK INTER + INTRA:          -6.368
REMARK INTER:                 -14.897
REMARK INTRA:                   8.529
REMARK UNBOUND:                 8.927
REMARK  9 active torsions:
REMARK  status: ('A' for Active; 'I' for Inactive)
REMARK    1  A    between atoms: O_3  and  C_17 
REMARK    2  A    between atoms: O_4  and  C_18 
REMARK    3  A    between atoms: O_5  and  C_19 
REMARK    4  A    between atoms: O_7  and  C_32 
REMARK    5  A    between atoms: O_9  and  C_36 
REMARK    6  A    between atoms: O_10  and  C_40 
REMARK    7  A    between atoms: C_11  and  C_13 
REMARK    8  A    between atoms: C_15  and  C_20 
REMARK    9  A    between atoms: C_22  and  C_29 
ROOT
ATOM      1  O   UNL d   1     -23.566 -30.124  -8.612  0.00  0.00    -0.308 OA
ATOM      2  O   UNL d   1     -21.810 -28.439  -6.742  0.00  0.00    -0.287 OA
ATOM      3  C   UNL d   1     -22.778 -29.348  -9.982  0.00  0.00     0.045 A 
ATOM      4  C   UNL d   1     -22.871 -29.447  -8.991  0.00  0.00     0.107 A 
ATOM      5  C   UNL d   1     -22.300 -28.900  -8.379  0.00  0.00     0.082 A 
ATOM      6  C   UNL d   1     -22.115 -28.703 -10.360  0.00  0.00     0.082 A 
ATOM      7  C   UNL d   1     -21.637 -28.254  -8.757  0.00  0.00     0.085 A 
ATOM      8  C   UNL d   1     -21.544 -28.155  -9.748  0.00  0.00     0.075 A 
ATOM      9  C   UNL d   1     -23.669 -30.232  -7.581  0.00  0.00     0.090 A 
ATOM     10  C   UNL d   1     -22.386 -28.992  -7.345  0.00  0.00     0.190 A 
ATOM     11  C   UNL d   1     -23.074 -29.662  -6.943  0.00  0.00     0.094 A 
ENDROOT
BRANCH   3  12
ATOM     12  C   UNL d   1     -23.348 -29.895 -10.595  0.00  0.00     0.014 A 
ATOM     13  C   UNL d   1     -23.018 -30.777 -10.931  0.00  0.00     0.029 A 
ATOM     14  C   UNL d   1     -23.588 -31.324 -11.544  0.00  0.00    -0.001 A 
ATOM     15  C   UNL d   1     -24.489 -30.990 -11.820  0.00  0.00     0.017 A 
ATOM     16  C   UNL d   1     -24.820 -30.108 -11.483  0.00  0.00     0.038 A 
ATOM     17  C   UNL d   1     -24.249 -29.561 -10.871  0.00  0.00     0.076 A 
BRANCH  14  18
ATOM     18  C   UNL d   1     -23.258 -32.206 -11.880  0.00  0.00     0.090 A 
ATOM     19  O   UNL d   1     -22.587 -32.239 -12.622  0.00  0.00    -0.309 OA
ATOM     20  C   UNL d   1     -22.257 -33.120 -12.958  0.00  0.00     0.095 A 
ATOM     21  C   UNL d   1     -22.597 -33.969 -12.554  0.00  0.00     0.081 A 
ATOM     22  C   UNL d   1     -21.558 -33.138 -13.731  0.00  0.00     0.075 A 
ATOM     23  C   UNL d   1     -23.267 -33.936 -11.812  0.00  0.00     0.190 A 
ATOM     24  C   UNL d   1     -22.262 -34.895 -12.894  0.00  0.00     0.085 A 
ATOM     25  O   UNL d   1     -23.607 -34.785 -11.408  0.00  0.00    -0.287 OA
ATOM     26  C   UNL d   1     -23.598 -33.055 -11.476  0.00  0.00     0.094 A 
ATOM     27  C   UNL d   1     -21.563 -34.937 -13.666  0.00  0.00     0.074 A 
ATOM     28  C   UNL d   1     -21.209 -34.053 -14.087  0.00  0.00     0.071 A 
BRANCH  24  29
ATOM     29  O   UNL d   1     -22.608 -35.738 -12.482  0.00  0.00    -0.360 OA
ATOM     30  H   UNL d   1     -22.295 -36.010 -12.021  0.00  0.00     0.217 HD
ENDBRANCH  24  29
BRANCH  28  31
ATOM     31  O   UNL d   1     -20.538 -34.082 -14.829  0.00  0.00    -0.361 OA
ATOM     32  H   UNL d   1     -20.279 -34.621 -14.991  0.00  0.00     0.217 HD
ENDBRANCH  28  31
ENDBRANCH  14  18
BRANCH  17  33
ATOM     33  O   UNL d   1     -24.580 -28.679 -10.534  0.00  0.00    -0.360 OA
ATOM     34  H   UNL d   1     -24.308 -28.412 -10.044  0.00  0.00     0.217 HD
ENDBRANCH  17  33
ENDBRANCH   3  12
BRANCH   6  35
ATOM     35  O   UNL d   1     -22.022 -28.604 -11.351  0.00  0.00    -0.360 OA
ATOM     36  H   UNL d   1     -21.476 -28.444 -11.597  0.00  0.00     0.217 HD
ENDBRANCH   6  35
BRANCH   9  37
ATOM     37  C   UNL d   1     -24.333 -30.879  -7.207  0.00  0.00    -0.002 A 
ATOM     38  C   UNL d   1     -25.303 -30.635  -7.174  0.00  0.00     0.017 A 
ATOM     39  C   UNL d   1     -25.968 -31.281  -6.800  0.00  0.00     0.037 A 
ATOM     40  C   UNL d   1     -25.664 -32.171  -6.459  0.00  0.00     0.065 A 
ATOM     41  C   UNL d   1     -24.694 -32.414  -6.492  0.00  0.00     0.037 A 
ATOM     42  C   UNL d   1     -24.029 -31.767  -6.867  0.00  0.00     0.017 A 
BRANCH  40  43
ATOM     43  O   UNL d   1     -26.328 -32.818  -6.085  0.00  0.00    -0.361 OA
ATOM     44  H   UNL d   1     -26.448 -32.822  -5.476  0.00  0.00     0.217 HD
ENDBRANCH  40  43
ENDBRANCH   9  37
BRANCH   7  45
ATOM     45  O   UNL d   1     -21.066 -27.707  -8.144  0.00  0.00    -0.360 OA
ATOM     46  H   UNL d   1     -20.467 -27.617  -8.276  0.00  0.00     0.217 HD
ENDBRANCH   7  45
TORSDOF 9
ENDMDL
