MODEL 1
REMARK VINA RESULT:    -7.131      0.000      0.000
REMARK INTER + INTRA:          -6.553
REMARK INTER:                  -8.459
REMARK INTRA:                   1.906
REMARK UNBOUND:                 2.037
REMARK  5 active torsions:
REMARK  status: ('A' for Active; 'I' for Inactive)
REMARK    1  A    between atoms: O_2  and  C_13 
REMARK    2  A    between atoms: O_3  and  C_19 
REMARK    3  A    between atoms: O_5  and  C_17 
REMARK    4  A    between atoms: O_6  and  C_21 
REMARK    5  A    between atoms: C_8  and  C_10 
ROOT
ATOM      1  O   UNL d   1      -5.079 -11.424   9.477  0.00  0.00    -0.309 OA
ATOM      2  O   UNL d   1      -5.874  -8.776  10.642  0.00  0.00    -0.287 OA
ATOM      3  C   UNL d   1      -6.302 -10.358  10.083  0.00  0.00     0.081 A 
ATOM      4  C   UNL d   1      -4.385 -10.724   9.647  0.00  0.00     0.090 A 
ATOM      5  C   UNL d   1      -6.037 -11.241   9.694  0.00  0.00     0.095 A 
ATOM      6  C   UNL d   1      -5.609  -9.658  10.253  0.00  0.00     0.190 A 
ATOM      7  C   UNL d   1      -4.650  -9.841  10.036  0.00  0.00     0.094 A 
ATOM      8  C   UNL d   1      -7.297 -10.154  10.315  0.00  0.00     0.085 A 
ATOM      9  C   UNL d   1      -6.748 -11.980   9.511  0.00  0.00     0.075 A 
ATOM     10  C   UNL d   1      -7.749 -11.797   9.735  0.00  0.00     0.071 A 
ATOM     11  C   UNL d   1      -8.025 -10.878  10.140  0.00  0.00     0.074 A 
ENDROOT
BRANCH   4  12
ATOM     12  C   UNL d   1      -3.426 -10.907   9.430  0.00  0.00     0.001 A 
ATOM     13  C   UNL d   1      -2.914 -11.585   9.957  0.00  0.00     0.054 A 
ATOM     14  C   UNL d   1      -1.956 -11.767   9.739  0.00  0.00     0.102 A 
ATOM     15  C   UNL d   1      -1.509 -11.272   8.994  0.00  0.00     0.099 A 
ATOM     16  C   UNL d   1      -2.021 -10.594   8.467  0.00  0.00     0.040 A 
ATOM     17  C   UNL d   1      -2.980 -10.411   8.684  0.00  0.00     0.017 A 
BRANCH  14  18
ATOM     18  O   UNL d   1      -1.443 -12.445  10.266  0.00  0.00    -0.353 OA
ATOM     19  C   UNL d   1      -1.706 -12.647  11.210  0.00  0.00     0.210 C 
ENDBRANCH  14  18
BRANCH  15  20
ATOM     20  O   UNL d   1      -0.550 -11.455   8.776  0.00  0.00    -0.358 OA
ATOM     21  H   UNL d   1      -0.362 -12.036   8.667  0.00  0.00     0.217 HD
ENDBRANCH  15  20
ENDBRANCH   4  12
BRANCH   8  22
ATOM     22  O   UNL d   1      -7.550  -9.268  10.703  0.00  0.00    -0.360 OA
ATOM     23  H   UNL d   1      -7.350  -9.108  11.267  0.00  0.00     0.217 HD
ENDBRANCH   8  22
BRANCH  10  24
ATOM     24  O   UNL d   1      -8.440 -12.499   9.563  0.00  0.00    -0.361 OA
ATOM     25  H   UNL d   1      -8.977 -12.487   9.872  0.00  0.00     0.217 HD
ENDBRANCH  10  24
TORSDOF 5
ENDMDL
MODEL 2
REMARK VINA RESULT:    -7.025     15.131     16.781
REMARK INTER + INTRA:          -6.426
REMARK INTER:                  -8.320
REMARK INTRA:                   1.894
REMARK UNBOUND:                 2.037
REMARK  5 active torsions:
REMARK  status: ('A' for Active; 'I' for Inactive)
REMARK    1  A    between atoms: O_2  and  C_13 
REMARK    2  A    between atoms: O_3  and  C_19 
REMARK    3  A    between atoms: O_5  and  C_17 
REMARK    4  A    between atoms: O_6  and  C_21 
REMARK    5  A    between atoms: C_8  and  C_10 
ROOT
ATOM      1  O   UNL d   1      -3.755   4.589   5.200  0.00  0.00    -0.309 OA
ATOM      2  O   UNL d   1      -2.930   4.813   2.324  0.00  0.00    -0.287 OA
ATOM      3  C   UNL d   1      -2.913   5.431   3.942  0.00  0.00     0.081 A 
ATOM      4  C   UNL d   1      -4.047   3.896   4.540  0.00  0.00     0.090 A 
ATOM      5  C   UNL d   1      -3.189   5.356   4.901  0.00  0.00     0.095 A 
ATOM      6  C   UNL d   1      -3.205   4.738   3.283  0.00  0.00     0.190 A 
ATOM      7  C   UNL d   1      -3.772   3.970   3.582  0.00  0.00     0.094 A 
ATOM      8  C   UNL d   1      -2.323   6.225   3.616  0.00  0.00     0.085 A 
ATOM      9  C   UNL d   1      -2.893   6.070   5.599  0.00  0.00     0.075 A 
ATOM     10  C   UNL d   1      -2.302   6.873   5.295  0.00  0.00     0.071 A 
ATOM     11  C   UNL d   1      -2.016   6.950   4.297  0.00  0.00     0.074 A 
ENDROOT
BRANCH   4  12
ATOM     12  C   UNL d   1      -4.614   3.128   4.839  0.00  0.00     0.001 A 
ATOM     13  C   UNL d   1      -5.547   3.290   5.160  0.00  0.00     0.054 A 
ATOM     14  C   UNL d   1      -6.114   2.523   5.459  0.00  0.00     0.102 A 
ATOM     15  C   UNL d   1      -5.747   1.593   5.437  0.00  0.00     0.099 A 
ATOM     16  C   UNL d   1      -4.814   1.430   5.117  0.00  0.00     0.040 A 
ATOM     17  C   UNL d   1      -4.247   2.198   4.818  0.00  0.00     0.017 A 
BRANCH  14  18
ATOM     18  O   UNL d   1      -7.047   2.685   5.779  0.00  0.00    -0.353 OA
ATOM     19  C   UNL d   1      -7.346   3.614   5.999  0.00  0.00     0.210 C 
ENDBRANCH  14  18
BRANCH  15  20
ATOM     20  O   UNL d   1      -6.314   0.825   5.736  0.00  0.00    -0.358 OA
ATOM     21  H   UNL d   1      -6.050   0.327   5.995  0.00  0.00     0.217 HD
ENDBRANCH  15  20
ENDBRANCH   4  12
BRANCH   8  22
ATOM     22  O   UNL d   1      -2.054   6.290   2.655  0.00  0.00    -0.360 OA
ATOM     23  H   UNL d   1      -1.472   6.159   2.487  0.00  0.00     0.217 HD
ENDBRANCH   8  22
BRANCH  10  24
ATOM     24  O   UNL d   1      -2.013   7.564   5.958  0.00  0.00    -0.361 OA
ATOM     25  H   UNL d   1      -1.428   7.570   6.163  0.00  0.00     0.217 HD
ENDBRANCH  10  24
TORSDOF 5
ENDMDL
MODEL 3
REMARK VINA RESULT:    -6.994      1.320      5.291
REMARK INTER + INTRA:          -6.388
REMARK INTER:                  -8.294
REMARK INTRA:                   1.906
REMARK UNBOUND:                 2.037
REMARK  5 active torsions:
REMARK  status: ('A' for Active; 'I' for Inactive)
REMARK    1  A    between atoms: O_2  and  C_13 
REMARK    2  A    between atoms: O_3  and  C_19 
REMARK    3  A    between atoms: O_5  and  C_17 
REMARK    4  A    between atoms: O_6  and  C_21 
REMARK    5  A    between atoms: C_8  and  C_10 
ROOT
ATOM      1  O   UNL d   1      -3.575 -10.849  10.697  0.00  0.00    -0.309 OA
ATOM      2  O   UNL d   1      -2.124 -10.448   8.103  0.00  0.00    -0.287 OA
ATOM      3  C   UNL d   1      -2.092 -10.730   9.811  0.00  0.00     0.081 A 
ATOM      4  C   UNL d   1      -4.091 -10.701   9.854  0.00  0.00     0.090 A 
ATOM      5  C   UNL d   1      -2.576 -10.863  10.676  0.00  0.00     0.095 A 
ATOM      6  C   UNL d   1      -2.608 -10.581   8.968  0.00  0.00     0.190 A 
ATOM      7  C   UNL d   1      -3.607 -10.567   8.989  0.00  0.00     0.094 A 
ATOM      8  C   UNL d   1      -1.051 -10.742   9.774  0.00  0.00     0.085 A 
ATOM      9  C   UNL d   1      -2.052 -11.019  11.564  0.00  0.00     0.075 A 
ATOM     10  C   UNL d   1      -1.011 -11.035  11.549  0.00  0.00     0.071 A 
ATOM     11  C   UNL d   1      -0.507 -10.896  10.649  0.00  0.00     0.074 A 
ENDROOT
BRANCH   4  12
ATOM     12  C   UNL d   1      -5.091 -10.686   9.875  0.00  0.00     0.001 A 
ATOM     13  C   UNL d   1      -5.571  -9.918  10.298  0.00  0.00     0.054 A 
ATOM     14  C   UNL d   1      -6.570  -9.903  10.319  0.00  0.00     0.102 A 
ATOM     15  C   UNL d   1      -7.090 -10.657   9.917  0.00  0.00     0.099 A 
ATOM     16  C   UNL d   1      -6.610 -11.425   9.494  0.00  0.00     0.040 A 
ATOM     17  C   UNL d   1      -5.610 -11.440   9.473  0.00  0.00     0.017 A 
BRANCH  14  18
ATOM     18  O   UNL d   1      -7.050  -9.135  10.743  0.00  0.00    -0.353 OA
ATOM     19  C   UNL d   1      -6.641  -8.655  11.519  0.00  0.00     0.210 C 
ENDBRANCH  14  18
BRANCH  15  20
ATOM     20  O   UNL d   1      -8.090 -10.642   9.938  0.00  0.00    -0.358 OA
ATOM     21  H   UNL d   1      -8.404 -10.301   9.527  0.00  0.00     0.217 HD
ENDBRANCH  15  20
ENDBRANCH   4  12
BRANCH   8  22
ATOM     22  O   UNL d   1      -0.578 -10.607   8.904  0.00  0.00    -0.360 OA
ATOM     23  H   UNL d   1      -0.871 -10.335   8.431  0.00  0.00     0.217 HD
ENDBRANCH   8  22
BRANCH  10  24
ATOM     24  O   UNL d   1      -0.499 -11.184  12.396  0.00  0.00    -0.361 OA
ATOM     25  H   UNL d   1      -0.332 -11.758  12.560  0.00  0.00     0.217 HD
ENDBRANCH  10  24
TORSDOF 5
ENDMDL
MODEL 4
REMARK VINA RESULT:    -6.965      1.015      2.000
REMARK INTER + INTRA:          -6.353
REMARK INTER:                  -8.177
REMARK INTRA:                   1.824
REMARK UNBOUND:                 2.037
REMARK  5 active torsions:
REMARK  status: ('A' for Active; 'I' for Inactive)
REMARK    1  A    between atoms: O_2  and  C_13 
REMARK    2  A    between atoms: O_3  and  C_19 
REMARK    3  A    between atoms: O_5  and  C_17 
REMARK    4  A    between atoms: O_6  and  C_21 
REMARK    5  A    between atoms: C_8  and  C_10 
ROOT
ATOM      1  O   UNL d   1      -4.668  -9.800  10.363  0.00  0.00    -0.309 OA
ATOM      2  O   UNL d   1      -6.941 -11.274   9.073  0.00  0.00    -0.287 OA
ATOM      3  C   UNL d   1      -6.369 -10.072  10.182  0.00  0.00     0.081 A 
ATOM      4  C   UNL d   1      -4.482 -10.510   9.684  0.00  0.00     0.090 A 
ATOM      5  C   UNL d   1      -5.612  -9.581  10.612  0.00  0.00     0.095 A 
ATOM      6  C   UNL d   1      -6.183 -10.782   9.503  0.00  0.00     0.190 A 
ATOM      7  C   UNL d   1      -5.240 -11.001   9.254  0.00  0.00     0.094 A 
ATOM      8  C   UNL d   1      -7.357  -9.855  10.432  0.00  0.00     0.085 A 
ATOM      9  C   UNL d   1      -5.790  -8.839  11.321  0.00  0.00     0.075 A 
ATOM     10  C   UNL d   1      -6.770  -8.605  11.586  0.00  0.00     0.071 A 
ATOM     11  C   UNL d   1      -7.558  -9.117  11.138  0.00  0.00     0.074 A 
ENDROOT
BRANCH   4  12
ATOM     12  C   UNL d   1      -3.539 -10.728   9.434  0.00  0.00     0.001 A 
ATOM     13  C   UNL d   1      -3.012 -11.372   9.989  0.00  0.00     0.054 A 
ATOM     14  C   UNL d   1      -2.068 -11.591   9.740  0.00  0.00     0.102 A 
ATOM     15  C   UNL d   1      -1.652 -11.166   8.936  0.00  0.00     0.099 A 
ATOM     16  C   UNL d   1      -2.180 -10.522   8.381  0.00  0.00     0.040 A 
ATOM     17  C   UNL d   1      -3.123 -10.304   8.630  0.00  0.00     0.017 A 
BRANCH  14  18
ATOM     18  O   UNL d   1      -1.541 -12.234  10.295  0.00  0.00    -0.353 OA
ATOM     19  C   UNL d   1      -1.952 -12.649  11.106  0.00  0.00     0.210 C 
ENDBRANCH  14  18
BRANCH  15  20
ATOM     20  O   UNL d   1      -0.709 -11.384   8.687  0.00  0.00    -0.358 OA
ATOM     21  H   UNL d   1      -0.249 -11.279   9.090  0.00  0.00     0.217 HD
ENDBRANCH  15  20
ENDBRANCH   4  12
BRANCH   8  22
ATOM     22  O   UNL d   1      -8.106 -10.353   9.995  0.00  0.00    -0.360 OA
ATOM     23  H   UNL d   1      -8.443 -10.756  10.324  0.00  0.00     0.217 HD
ENDBRANCH   8  22
BRANCH  10  24
ATOM     24  O   UNL d   1      -6.951  -7.895  12.266  0.00  0.00    -0.361 OA
ATOM     25  H   UNL d   1      -6.778  -7.310  12.156  0.00  0.00     0.217 HD
ENDBRANCH  10  24
TORSDOF 5
ENDMDL
MODEL 5
REMARK VINA RESULT:    -6.782     14.964     17.232
REMARK INTER + INTRA:          -6.133
REMARK INTER:                  -7.953
REMARK INTRA:                   1.820
REMARK UNBOUND:                 2.037
REMARK  5 active torsions:
REMARK  status: ('A' for Active; 'I' for Inactive)
REMARK    1  A    between atoms: O_2  and  C_13 
REMARK    2  A    between atoms: O_3  and  C_19 
REMARK    3  A    between atoms: O_5  and  C_17 
REMARK    4  A    between atoms: O_6  and  C_21 
REMARK    5  A    between atoms: C_8  and  C_10 
ROOT
ATOM      1  O   UNL d   1      10.426  -3.053   9.882  0.00  0.00    -0.309 OA
ATOM      2  O   UNL d   1       7.969  -4.305  11.063  0.00  0.00    -0.287 OA
ATOM      3  C   UNL d   1       9.444  -4.451  10.166  0.00  0.00     0.081 A 
ATOM      4  C   UNL d   1       9.771  -2.490  10.385  0.00  0.00     0.090 A 
ATOM      5  C   UNL d   1      10.263  -4.033   9.773  0.00  0.00     0.095 A 
ATOM      6  C   UNL d   1       8.788  -3.887  10.669  0.00  0.00     0.190 A 
ATOM      7  C   UNL d   1       8.952  -2.907  10.779  0.00  0.00     0.094 A 
ATOM      8  C   UNL d   1       9.260  -5.470  10.060  0.00  0.00     0.085 A 
ATOM      9  C   UNL d   1      10.955  -4.607   9.246  0.00  0.00     0.075 A 
ATOM     10  C   UNL d   1      10.791  -5.629   9.128  0.00  0.00     0.071 A 
ATOM     11  C   UNL d   1       9.939  -6.063   9.538  0.00  0.00     0.074 A 
ENDROOT
BRANCH   4  12
ATOM     12  C   UNL d   1       9.934  -1.509  10.495  0.00  0.00     0.001 A 
ATOM     13  C   UNL d   1      10.470  -1.175  11.270  0.00  0.00     0.054 A 
ATOM     14  C   UNL d   1      10.634  -0.195  11.380  0.00  0.00     0.102 A 
ATOM     15  C   UNL d   1      10.262   0.451  10.713  0.00  0.00     0.099 A 
ATOM     16  C   UNL d   1       9.726   0.117   9.938  0.00  0.00     0.040 A 
ATOM     17  C   UNL d   1       9.562  -0.863   9.828  0.00  0.00     0.017 A 
BRANCH  14  18
ATOM     18  O   UNL d   1      11.169   0.139  12.155  0.00  0.00    -0.353 OA
ATOM     19  C   UNL d   1      11.438  -0.489  12.885  0.00  0.00     0.210 C 
ENDBRANCH  14  18
BRANCH  15  20
ATOM     20  O   UNL d   1      10.425   1.432  10.823  0.00  0.00    -0.358 OA
ATOM     21  H   UNL d   1      10.753   1.639  11.307  0.00  0.00     0.217 HD
ENDBRANCH  15  20
ENDBRANCH   4  12
BRANCH   8  22
ATOM     22  O   UNL d   1       8.438  -5.877  10.458  0.00  0.00    -0.360 OA
ATOM     23  H   UNL d   1       8.074  -5.539  10.829  0.00  0.00     0.217 HD
ENDBRANCH   8  22
BRANCH  10  24
ATOM     24  O   UNL d   1      11.450  -6.189   8.624  0.00  0.00    -0.361 OA
ATOM     25  H   UNL d   1      12.000  -6.322   8.877  0.00  0.00     0.217 HD
ENDBRANCH  10  24
TORSDOF 5
ENDMDL
