MODEL 1
REMARK VINA RESULT:    -6.802      0.000      0.000
REMARK INTER + INTRA:          -3.755
REMARK INTER:                  -8.883
REMARK INTRA:                   5.128
REMARK UNBOUND:                 5.035
REMARK  6 active torsions:
REMARK  status: ('A' for Active; 'I' for Inactive)
REMARK    1  A    between atoms: O_2  and  C_15 
REMARK    2  A    between atoms: O_3  and  C_17 
REMARK    3  A    between atoms: O_4  and  C_11 
REMARK    4  A    between atoms: O_6  and  C_22 
REMARK    5  A    between atoms: O_7  and  C_20 
REMARK    6  A    between atoms: C_10  and  C_13 
ROOT
ATOM      1  O   UNL d   1       3.843 -15.080   3.267  0.00  0.00    -0.309 OA
ATOM      2  O   UNL d   1       2.258 -14.026   0.859  0.00  0.00    -0.287 OA
ATOM      3  C   UNL d   1       2.442 -15.190   2.180  0.00  0.00     0.084 A 
ATOM      4  C   UNL d   1       2.956 -15.536   2.965  0.00  0.00     0.096 A 
ATOM      5  C   UNL d   1       4.199 -14.253   2.744  0.00  0.00     0.090 A 
ATOM      6  C   UNL d   1       1.592 -15.637   1.902  0.00  0.00     0.119 A 
ATOM      7  C   UNL d   1       2.780 -14.364   1.643  0.00  0.00     0.190 A 
ATOM      8  C   UNL d   1       2.619 -16.329   3.472  0.00  0.00     0.078 A 
ATOM      9  C   UNL d   1       1.256 -16.431   2.409  0.00  0.00     0.136 A 
ATOM     10  C   UNL d   1       3.664 -13.892   1.926  0.00  0.00     0.094 A 
ATOM     11  C   UNL d   1       1.770 -16.777   3.194  0.00  0.00     0.107 A 
ENDROOT
BRANCH   5  12
ATOM     12  C   UNL d   1       5.049 -13.808   3.025  0.00  0.00     0.001 A 
ATOM     13  C   UNL d   1       5.073 -13.260   3.862  0.00  0.00     0.053 A 
ATOM     14  C   UNL d   1       5.923 -12.814   4.144  0.00  0.00     0.099 A 
ATOM     15  C   UNL d   1       6.749 -12.917   3.588  0.00  0.00     0.101 A 
ATOM     16  C   UNL d   1       6.724 -13.464   2.752  0.00  0.00     0.040 A 
ATOM     17  C   UNL d   1       5.874 -13.910   2.471  0.00  0.00     0.017 A 
BRANCH  14  18
ATOM     18  O   UNL d   1       5.949 -12.267   4.980  0.00  0.00    -0.358 OA
ATOM     19  H   UNL d   1       5.935 -12.544   5.533  0.00  0.00     0.217 HD
ENDBRANCH  14  18
BRANCH  15  20
ATOM     20  O   UNL d   1       7.599 -12.472   3.869  0.00  0.00    -0.353 OA
ATOM     21  C   UNL d   1       8.420 -12.560   3.306  0.00  0.00     0.210 C 
ENDBRANCH  15  20
ENDBRANCH   5  12
BRANCH   6  22
ATOM     22  O   UNL d   1       1.079 -15.291   1.117  0.00  0.00    -0.357 OA
ATOM     23  H   UNL d   1       0.785 -14.746   1.154  0.00  0.00     0.218 HD
ENDBRANCH   6  22
BRANCH  11  24
ATOM     24  O   UNL d   1       1.433 -17.571   3.701  0.00  0.00    -0.353 OA
ATOM     25  C   UNL d   1       2.037 -18.049   4.338  0.00  0.00     0.210 C 
ENDBRANCH  11  24
BRANCH   9  26
ATOM     26  O   UNL d   1       0.406 -16.878   2.130  0.00  0.00    -0.351 OA
ATOM     27  C   UNL d   1       0.399 -17.489   1.338  0.00  0.00     0.210 C 
ENDBRANCH   9  26
TORSDOF 6
ENDMDL
MODEL 2
REMARK VINA RESULT:    -6.678     10.926     12.484
REMARK INTER + INTRA:          -3.595
REMARK INTER:                  -8.687
REMARK INTRA:                   5.093
REMARK UNBOUND:                 5.035
REMARK  6 active torsions:
REMARK  status: ('A' for Active; 'I' for Inactive)
REMARK    1  A    between atoms: O_2  and  C_15 
REMARK    2  A    between atoms: O_3  and  C_17 
REMARK    3  A    between atoms: O_4  and  C_11 
REMARK    4  A    between atoms: O_6  and  C_22 
REMARK    5  A    between atoms: O_7  and  C_20 
REMARK    6  A    between atoms: C_10  and  C_13 
ROOT
ATOM      1  O   UNL d   1      -3.660 -10.785  10.891  0.00  0.00    -0.309 OA
ATOM      2  O   UNL d   1      -2.038 -10.519   8.299  0.00  0.00    -0.287 OA
ATOM      3  C   UNL d   1      -2.094 -10.674  10.061  0.00  0.00     0.084 A 
ATOM      4  C   UNL d   1      -2.619 -10.761  10.908  0.00  0.00     0.096 A 
ATOM      5  C   UNL d   1      -4.161 -10.717   9.980  0.00  0.00     0.090 A 
ATOM      6  C   UNL d   1      -1.094 -10.653  10.093  0.00  0.00     0.119 A 
ATOM      7  C   UNL d   1      -2.574 -10.606   9.140  0.00  0.00     0.190 A 
ATOM      8  C   UNL d   1      -2.145 -10.826  11.786  0.00  0.00     0.078 A 
ATOM      9  C   UNL d   1      -0.620 -10.718  10.971  0.00  0.00     0.136 A 
ATOM     10  C   UNL d   1      -3.614 -10.627   9.098  0.00  0.00     0.094 A 
ATOM     11  C   UNL d   1      -1.145 -10.805  11.817  0.00  0.00     0.107 A 
ENDROOT
BRANCH   5  12
ATOM     12  C   UNL d   1      -5.160 -10.739   9.952  0.00  0.00     0.001 A 
ATOM     13  C   UNL d   1      -5.686  -9.950  10.271  0.00  0.00     0.053 A 
ATOM     14  C   UNL d   1      -6.686  -9.971  10.243  0.00  0.00     0.099 A 
ATOM     15  C   UNL d   1      -7.159 -10.782   9.897  0.00  0.00     0.101 A 
ATOM     16  C   UNL d   1      -6.633 -11.571   9.579  0.00  0.00     0.040 A 
ATOM     17  C   UNL d   1      -5.634 -11.549   9.607  0.00  0.00     0.017 A 
BRANCH  14  18
ATOM     18  O   UNL d   1      -7.213  -9.183  10.561  0.00  0.00    -0.358 OA
ATOM     19  H   UNL d   1      -7.473  -9.190  11.123  0.00  0.00     0.217 HD
ENDBRANCH  14  18
BRANCH  15  20
ATOM     20  O   UNL d   1      -8.158 -10.804   9.869  0.00  0.00    -0.353 OA
ATOM     21  C   UNL d   1      -8.641 -11.678   9.911  0.00  0.00     0.210 C 
ENDBRANCH  15  20
ENDBRANCH   5  12
BRANCH   6  22
ATOM     22  O   UNL d   1      -0.569 -10.566   9.246  0.00  0.00    -0.357 OA
ATOM     23  H   UNL d   1      -0.809 -10.768   8.711  0.00  0.00     0.218 HD
ENDBRANCH   6  22
BRANCH  11  24
ATOM     24  O   UNL d   1      -0.671 -10.870  12.695  0.00  0.00    -0.353 OA
ATOM     25  C   UNL d   1      -1.177 -11.126  13.519  0.00  0.00     0.210 C 
ENDBRANCH  11  24
BRANCH   9  26
ATOM     26  O   UNL d   1       0.379 -10.697  11.002  0.00  0.00    -0.351 OA
ATOM     27  C   UNL d   1       0.860  -9.820  11.026  0.00  0.00     0.210 C 
ENDBRANCH   9  26
TORSDOF 6
ENDMDL
MODEL 3
REMARK VINA RESULT:    -6.606      9.713     11.293
REMARK INTER + INTRA:          -3.502
REMARK INTER:                  -8.542
REMARK INTRA:                   5.039
REMARK UNBOUND:                 5.035
REMARK  6 active torsions:
REMARK  status: ('A' for Active; 'I' for Inactive)
REMARK    1  A    between atoms: O_2  and  C_15 
REMARK    2  A    between atoms: O_3  and  C_17 
REMARK    3  A    between atoms: O_4  and  C_11 
REMARK    4  A    between atoms: O_6  and  C_22 
REMARK    5  A    between atoms: O_7  and  C_20 
REMARK    6  A    between atoms: C_10  and  C_13 
ROOT
ATOM      1  O   UNL d   1      -1.633 -11.322  11.114  0.00  0.00    -0.309 OA
ATOM      2  O   UNL d   1      -0.283 -13.616   9.587  0.00  0.00    -0.287 OA
ATOM      3  C   UNL d   1      -0.268 -12.440  10.909  0.00  0.00     0.084 A 
ATOM      4  C   UNL d   1      -0.705 -11.693  11.409  0.00  0.00     0.096 A 
ATOM      5  C   UNL d   1      -2.111 -11.735  10.286  0.00  0.00     0.090 A 
ATOM      6  C   UNL d   1       0.623 -12.786  11.204  0.00  0.00     0.119 A 
ATOM      7  C   UNL d   1      -0.729 -12.868  10.079  0.00  0.00     0.190 A 
ATOM      8  C   UNL d   1      -0.251 -11.291  12.205  0.00  0.00     0.078 A 
ATOM      9  C   UNL d   1       1.076 -12.384  12.000  0.00  0.00     0.136 A 
ATOM     10  C   UNL d   1      -1.656 -12.514   9.765  0.00  0.00     0.094 A 
ATOM     11  C   UNL d   1       0.639 -11.636  12.500  0.00  0.00     0.107 A 
ENDROOT
BRANCH   5  12
ATOM     12  C   UNL d   1      -3.002 -11.387   9.994  0.00  0.00     0.001 A 
ATOM     13  C   UNL d   1      -3.065 -10.506   9.525  0.00  0.00     0.053 A 
ATOM     14  C   UNL d   1      -3.955 -10.157   9.233  0.00  0.00     0.099 A 
ATOM     15  C   UNL d   1      -4.783 -10.690   9.409  0.00  0.00     0.101 A 
ATOM     16  C   UNL d   1      -4.720 -11.571   9.877  0.00  0.00     0.040 A 
ATOM     17  C   UNL d   1      -3.830 -11.919  10.170  0.00  0.00     0.017 A 
BRANCH  14  18
ATOM     18  O   UNL d   1      -4.019  -9.276   8.764  0.00  0.00    -0.358 OA
ATOM     19  H   UNL d   1      -4.486  -9.165   8.373  0.00  0.00     0.217 HD
ENDBRANCH  14  18
BRANCH  15  20
ATOM     20  O   UNL d   1      -5.673 -10.342   9.116  0.00  0.00    -0.353 OA
ATOM     21  C   UNL d   1      -6.479 -10.933   9.155  0.00  0.00     0.210 C 
ENDBRANCH  15  20
ENDBRANCH   5  12
BRANCH   6  22
ATOM     22  O   UNL d   1       1.059 -13.534  10.704  0.00  0.00    -0.357 OA
ATOM     23  H   UNL d   1       1.669 -13.517  10.593  0.00  0.00     0.218 HD
ENDBRANCH   6  22
BRANCH  11  24
ATOM     24  O   UNL d   1       1.093 -11.234  13.295  0.00  0.00    -0.353 OA
ATOM     25  C   UNL d   1       0.602 -10.585  13.876  0.00  0.00     0.210 C 
ENDBRANCH  11  24
BRANCH   9  26
ATOM     26  O   UNL d   1       1.967 -12.730  12.295  0.00  0.00    -0.351 OA
ATOM     27  C   UNL d   1       2.801 -12.418  11.839  0.00  0.00     0.210 C 
ENDBRANCH   9  26
TORSDOF 6
ENDMDL
MODEL 4
REMARK VINA RESULT:    -6.597      1.183      2.205
REMARK INTER + INTRA:          -3.491
REMARK INTER:                  -8.548
REMARK INTRA:                   5.057
REMARK UNBOUND:                 5.035
REMARK  6 active torsions:
REMARK  status: ('A' for Active; 'I' for Inactive)
REMARK    1  A    between atoms: O_2  and  C_15 
REMARK    2  A    between atoms: O_3  and  C_17 
REMARK    3  A    between atoms: O_4  and  C_11 
REMARK    4  A    between atoms: O_6  and  C_22 
REMARK    5  A    between atoms: O_7  and  C_20 
REMARK    6  A    between atoms: C_10  and  C_13 
ROOT
ATOM      1  O   UNL d   1       3.332 -14.532   1.958  0.00  0.00    -0.309 OA
ATOM      2  O   UNL d   1       3.463 -16.757   4.068  0.00  0.00    -0.287 OA
ATOM      3  C   UNL d   1       2.555 -15.865   2.840  0.00  0.00     0.084 A 
ATOM      4  C   UNL d   1       2.508 -15.141   2.151  0.00  0.00     0.096 A 
ATOM      5  C   UNL d   1       4.215 -14.681   2.490  0.00  0.00     0.090 A 
ATOM      6  C   UNL d   1       1.756 -16.441   3.014  0.00  0.00     0.119 A 
ATOM      7  C   UNL d   1       3.428 -16.030   3.382  0.00  0.00     0.190 A 
ATOM      8  C   UNL d   1       1.663 -14.993   1.637  0.00  0.00     0.078 A 
ATOM      9  C   UNL d   1       0.911 -16.293   2.500  0.00  0.00     0.136 A 
ATOM     10  C   UNL d   1       4.264 -15.435   3.207  0.00  0.00     0.094 A 
ATOM     11  C   UNL d   1       0.865 -15.569   1.811  0.00  0.00     0.107 A 
ENDROOT
BRANCH   5  12
ATOM     12  C   UNL d   1       5.012 -14.103   2.313  0.00  0.00     0.001 A 
ATOM     13  C   UNL d   1       5.162 -13.278   2.858  0.00  0.00     0.053 A 
ATOM     14  C   UNL d   1       5.959 -12.700   2.682  0.00  0.00     0.099 A 
ATOM     15  C   UNL d   1       6.605 -12.947   1.960  0.00  0.00     0.101 A 
ATOM     16  C   UNL d   1       6.455 -13.771   1.414  0.00  0.00     0.040 A 
ATOM     17  C   UNL d   1       5.659 -14.349   1.591  0.00  0.00     0.017 A 
BRANCH  14  18
ATOM     18  O   UNL d   1       6.110 -11.875   3.227  0.00  0.00    -0.358 OA
ATOM     19  H   UNL d   1       6.539 -11.463   3.055  0.00  0.00     0.217 HD
ENDBRANCH  14  18
BRANCH  15  20
ATOM     20  O   UNL d   1       7.402 -12.369   1.783  0.00  0.00    -0.353 OA
ATOM     21  C   UNL d   1       8.231 -12.766   1.390  0.00  0.00     0.210 C 
ENDBRANCH  15  20
ENDBRANCH   5  12
BRANCH   6  22
ATOM     22  O   UNL d   1       1.802 -17.164   3.702  0.00  0.00    -0.357 OA
ATOM     23  H   UNL d   1       1.344 -17.230   4.115  0.00  0.00     0.218 HD
ENDBRANCH   6  22
BRANCH  11  24
ATOM     24  O   UNL d   1       0.020 -15.421   1.297  0.00  0.00    -0.353 OA
ATOM     25  C   UNL d   1      -0.056 -14.643   0.674  0.00  0.00     0.210 C 
ENDBRANCH  11  24
BRANCH   9  26
ATOM     26  O   UNL d   1       0.113 -16.869   2.674  0.00  0.00    -0.351 OA
ATOM     27  C   UNL d   1       0.111 -17.824   2.379  0.00  0.00     0.210 C 
ENDBRANCH   9  26
TORSDOF 6
ENDMDL
MODEL 5
REMARK VINA RESULT:    -6.546     10.097     10.715
REMARK INTER + INTRA:          -3.425
REMARK INTER:                  -8.507
REMARK INTRA:                   5.082
REMARK UNBOUND:                 5.035
REMARK  6 active torsions:
REMARK  status: ('A' for Active; 'I' for Inactive)
REMARK    1  A    between atoms: O_2  and  C_15 
REMARK    2  A    between atoms: O_3  and  C_17 
REMARK    3  A    between atoms: O_4  and  C_11 
REMARK    4  A    between atoms: O_6  and  C_22 
REMARK    5  A    between atoms: O_7  and  C_20 
REMARK    6  A    between atoms: C_10  and  C_13 
ROOT
ATOM      1  O   UNL d   1      -3.275 -12.435  10.319  0.00  0.00    -0.309 OA
ATOM      2  O   UNL d   1      -3.525  -9.629   9.101  0.00  0.00    -0.287 OA
ATOM      3  C   UNL d   1      -4.278 -11.138   9.637  0.00  0.00     0.084 A 
ATOM      4  C   UNL d   1      -4.201 -12.053  10.034  0.00  0.00     0.096 A 
ATOM      5  C   UNL d   1      -2.418 -11.857  10.189  0.00  0.00     0.090 A 
ATOM      6  C   UNL d   1      -5.174 -10.784   9.368  0.00  0.00     0.119 A 
ATOM      7  C   UNL d   1      -3.435 -10.543   9.498  0.00  0.00     0.190 A 
ATOM      8  C   UNL d   1      -5.019 -12.613  10.161  0.00  0.00     0.078 A 
ATOM      9  C   UNL d   1      -5.992 -11.345   9.496  0.00  0.00     0.136 A 
ATOM     10  C   UNL d   1      -2.499 -10.904   9.776  0.00  0.00     0.094 A 
ATOM     11  C   UNL d   1      -5.914 -12.259   9.892  0.00  0.00     0.107 A 
ENDROOT
BRANCH   5  12
ATOM     12  C   UNL d   1      -1.524 -12.214  10.459  0.00  0.00     0.001 A 
ATOM     13  C   UNL d   1      -1.055 -12.879   9.878  0.00  0.00     0.053 A 
ATOM     14  C   UNL d   1      -0.161 -13.236  10.148  0.00  0.00     0.099 A 
ATOM     15  C   UNL d   1       0.264 -12.928  10.999  0.00  0.00     0.101 A 
ATOM     16  C   UNL d   1      -0.205 -12.263  11.580  0.00  0.00     0.040 A 
ATOM     17  C   UNL d   1      -1.098 -11.906  11.310  0.00  0.00     0.017 A 
BRANCH  14  18
ATOM     18  O   UNL d   1       0.309 -13.901   9.567  0.00  0.00    -0.358 OA
ATOM     19  H   UNL d   1       0.127 -13.985   8.981  0.00  0.00     0.217 HD
ENDBRANCH  14  18
BRANCH  15  20
ATOM     20  O   UNL d   1       1.158 -13.285  11.269  0.00  0.00    -0.353 OA
ATOM     21  C   UNL d   1       1.641 -12.888  12.050  0.00  0.00     0.210 C 
ENDBRANCH  15  20
ENDBRANCH   5  12
BRANCH   6  22
ATOM     22  O   UNL d   1      -5.252  -9.869   8.971  0.00  0.00    -0.357 OA
ATOM     23  H   UNL d   1      -5.507  -9.410   9.300  0.00  0.00     0.218 HD
ENDBRANCH   6  22
BRANCH  11  24
ATOM     24  O   UNL d   1      -6.733 -12.820  10.020  0.00  0.00    -0.353 OA
ATOM     25  C   UNL d   1      -6.644 -13.797  10.213  0.00  0.00     0.210 C 
ENDBRANCH  11  24
BRANCH   9  26
ATOM     26  O   UNL d   1      -6.888 -10.991   9.226  0.00  0.00    -0.351 OA
ATOM     27  C   UNL d   1      -7.450 -10.497   9.890  0.00  0.00     0.210 C 
ENDBRANCH   9  26
TORSDOF 6
ENDMDL
