MODEL 1
REMARK VINA RESULT:   -11.974      0.000      0.000
REMARK INTER + INTRA:         -13.465
REMARK INTER:                 -14.790
REMARK INTRA:                   1.325
REMARK UNBOUND:                 1.309
REMARK  6 active torsions:
REMARK  status: ('A' for Active; 'I' for Inactive)
REMARK    1  A    between atoms: C_22  and  O_1 
REMARK    2  A    between atoms: C_24  and  O_2 
REMARK    3  A    between atoms: O_3  and  C_30 
REMARK    4  A    between atoms: O_4  and  C_33 
REMARK    5  A    between atoms: C_14  and  C_30 
REMARK    6  A    between atoms: C_19  and  C_33 
ROOT
ATOM      1  C   UNL d   1      10.641  21.085   0.228  0.00  0.00    -0.028 A 
ATOM      2  C   UNL d   1      11.401  20.999   0.871  0.00  0.00     0.007 A 
ATOM      3  C   UNL d   1      12.381  20.899   0.530  0.00  0.00    -0.033 A 
ATOM      4  C   UNL d   1       9.706  21.180   0.569  0.00  0.00    -0.013 A 
ATOM      5  C   UNL d   1      12.570  20.889  -0.493  0.00  0.00     0.007 A 
ATOM      6  C   UNL d   1      10.807  21.077  -0.800  0.00  0.00     0.011 A 
ATOM      7  C   UNL d   1       9.531  21.189   1.554  0.00  0.00    -0.069 A 
ATOM      8  C   UNL d   1      11.778  20.978  -1.163  0.00  0.00     0.007 A 
ATOM      9  C   UNL d   1      13.583  20.786  -0.871  0.00  0.00     0.010 A 
ATOM     10  C   UNL d   1       8.563  21.287   1.924  0.00  0.00     0.038 A 
ATOM     11  C   UNL d   1      11.227  21.008   1.856  0.00  0.00     0.033 A 
ATOM     12  C   UNL d   1      13.190  20.807   1.247  0.00  0.00     0.044 A 
ATOM     13  C   UNL d   1       8.924  21.269  -0.114  0.00  0.00     0.016 A 
ATOM     14  C   UNL d   1       7.765  21.377   1.260  0.00  0.00     0.053 A 
ATOM     15  C   UNL d   1      10.145  21.145  -0.639  0.00  0.00     0.016 C 
ATOM     16  C   UNL d   1       7.947  21.368   0.234  0.00  0.00     0.022 A 
ATOM     17  C   UNL d   1      14.407  20.692  -0.174  0.00  0.00     0.157 A 
ATOM     18  C   UNL d   1      10.292  21.103   2.197  0.00  0.00    -0.022 A 
ATOM     19  C   UNL d   1      14.210  20.703   0.893  0.00  0.00     0.148 A 
ATOM     20  C   UNL d   1      12.199  20.909   1.514  0.00  0.00     0.016 C 
ATOM     21  C   UNL d   1       9.535  21.207  -0.416  0.00  0.00     0.021 C 
ATOM     22  C   UNL d   1       8.398  21.294   2.996  0.00  0.00    -0.005 A 
ATOM     23  C   UNL d   1       6.748  21.481   1.623  0.00  0.00     0.021 A 
ATOM     24  C   UNL d   1       7.389  21.397   3.382  0.00  0.00    -0.014 A 
ATOM     25  C   UNL d   1      13.240  20.831  -1.810  0.00  0.00     0.020 C 
ATOM     26  C   UNL d   1       6.558  21.491   2.691  0.00  0.00     0.006 A 
ATOM     27  C   UNL d   1       9.171  21.207   3.626  0.00  0.00     0.011 C 
ATOM     28  C   UNL d   1       7.227  21.404   4.369  0.00  0.00     0.010 C 
ENDROOT
BRANCH   9  29
ATOM     29  C   UNL d   1      14.220  20.726  -1.640  0.00  0.00     0.176 C 
BRANCH  29  30
ATOM     30  O   UNL d   1      14.003  21.177  -2.506  0.00  0.00    -0.400 OA
ATOM     31  H   UNL d   1      13.434  21.403  -2.604  0.00  0.00     0.209 HD
ENDBRANCH  29  30
ENDBRANCH   9  29
BRANCH  17  32
ATOM     32  O   UNL d   1      15.344  20.597  -0.511  0.00  0.00    -0.392 OA
ATOM     33  H   UNL d   1      15.823  20.727  -0.139  0.00  0.00     0.210 HD
ENDBRANCH  17  32
BRANCH  19  34
ATOM     34  O   UNL d   1      14.963  20.617   1.545  0.00  0.00    -0.393 OA
ATOM     35  H   UNL d   1      15.543  20.749   1.369  0.00  0.00     0.210 HD
ENDBRANCH  19  34
BRANCH  14  36
ATOM     36  C   UNL d   1       6.999  21.464   0.623  0.00  0.00     0.149 C 
ATOM     37  O   UNL d   1       6.477  20.654   0.358  0.00  0.00    -0.649 OA
BRANCH  36  38
ATOM     38  O   UNL d   1       6.756  22.360   0.252  0.00  0.00    -0.776 OA
ATOM     39  H   UNL d   1       6.471  22.401  -0.297  0.00  0.00     0.167 HD
ENDBRANCH  36  38
ENDBRANCH  14  36
TORSDOF 6
ENDMDL
MODEL 2
REMARK VINA RESULT:   -11.022      4.033      5.674
REMARK INTER + INTRA:         -12.291
REMARK INTER:                 -13.639
REMARK INTRA:                   1.348
REMARK UNBOUND:                 1.309
REMARK  6 active torsions:
REMARK  status: ('A' for Active; 'I' for Inactive)
REMARK    1  A    between atoms: C_22  and  O_1 
REMARK    2  A    between atoms: C_24  and  O_2 
REMARK    3  A    between atoms: O_3  and  C_30 
REMARK    4  A    between atoms: O_4  and  C_33 
REMARK    5  A    between atoms: C_14  and  C_30 
REMARK    6  A    between atoms: C_19  and  C_33 
ROOT
ATOM      1  C   UNL d   1       9.218  23.824   4.125  0.00  0.00    -0.028 A 
ATOM      2  C   UNL d   1       9.226  23.177   4.887  0.00  0.00     0.007 A 
ATOM      3  C   UNL d   1       9.805  22.311   4.847  0.00  0.00    -0.033 A 
ATOM      4  C   UNL d   1       8.658  24.651   4.177  0.00  0.00    -0.013 A 
ATOM      5  C   UNL d   1      10.382  22.118   4.002  0.00  0.00     0.007 A 
ATOM      6  C   UNL d   1       9.788  23.652   3.271  0.00  0.00     0.011 A 
ATOM      7  C   UNL d   1       8.106  24.830   4.991  0.00  0.00    -0.069 A 
ATOM      8  C   UNL d   1      10.374  22.793   3.209  0.00  0.00     0.007 A 
ATOM      9  C   UNL d   1      10.993  21.223   3.938  0.00  0.00     0.010 A 
ATOM     10  C   UNL d   1       7.517  25.687   5.061  0.00  0.00     0.038 A 
ATOM     11  C   UNL d   1       8.674  23.356   5.701  0.00  0.00     0.033 A 
ATOM     12  C   UNL d   1       9.797  21.623   5.686  0.00  0.00     0.044 A 
ATOM     13  C   UNL d   1       8.661  25.316   3.375  0.00  0.00     0.016 A 
ATOM     14  C   UNL d   1       7.504  26.366   4.271  0.00  0.00     0.053 A 
ATOM     15  C   UNL d   1       9.431  24.235   3.238  0.00  0.00     0.016 C 
ATOM     16  C   UNL d   1       8.079  26.179   3.423  0.00  0.00     0.022 A 
ATOM     17  C   UNL d   1      11.002  20.520   4.764  0.00  0.00     0.157 A 
ATOM     18  C   UNL d   1       8.114  24.182   5.753  0.00  0.00    -0.022 A 
ATOM     19  C   UNL d   1      10.400  20.722   5.644  0.00  0.00     0.148 A 
ATOM     20  C   UNL d   1       9.250  22.497   5.658  0.00  0.00     0.016 C 
ATOM     21  C   UNL d   1       9.065  24.774   3.272  0.00  0.00     0.021 C 
ATOM     22  C   UNL d   1       6.927  25.860   5.953  0.00  0.00    -0.005 A 
ATOM     23  C   UNL d   1       6.899  27.265   4.320  0.00  0.00     0.021 A 
ATOM     24  C   UNL d   1       6.314  26.752   6.025  0.00  0.00    -0.014 A 
ATOM     25  C   UNL d   1      11.305  21.497   3.028  0.00  0.00     0.020 C 
ATOM     26  C   UNL d   1       6.299  27.460   5.203  0.00  0.00     0.006 A 
ATOM     27  C   UNL d   1       6.946  25.200   6.706  0.00  0.00     0.011 C 
ATOM     28  C   UNL d   1       5.765  26.921   6.845  0.00  0.00     0.010 C 
ENDROOT
BRANCH   9  29
ATOM     29  C   UNL d   1      11.635  20.645   3.435  0.00  0.00     0.176 C 
BRANCH  29  30
ATOM     30  O   UNL d   1      12.363  21.062   2.891  0.00  0.00    -0.400 OA
ATOM     31  H   UNL d   1      12.222  21.460   2.437  0.00  0.00     0.209 HD
ENDBRANCH  29  30
ENDBRANCH   9  29
BRANCH  17  32
ATOM     32  O   UNL d   1      11.560  19.693   4.716  0.00  0.00    -0.392 OA
ATOM     33  H   UNL d   1      11.305  19.156   4.539  0.00  0.00     0.210 HD
ENDBRANCH  17  32
BRANCH  19  34
ATOM     34  O   UNL d   1      10.400  20.081   6.412  0.00  0.00    -0.393 OA
ATOM     35  H   UNL d   1      10.072  20.208   6.922  0.00  0.00     0.210 HD
ENDBRANCH  19  34
BRANCH  14  36
ATOM     36  C   UNL d   1       7.491  27.018   3.513  0.00  0.00     0.149 C 
ATOM     37  O   UNL d   1       6.874  26.873   2.740  0.00  0.00    -0.649 OA
BRANCH  36  38
ATOM     38  O   UNL d   1       8.094  27.815   3.529  0.00  0.00    -0.776 OA
ATOM     39  H   UNL d   1       8.162  28.142   4.051  0.00  0.00     0.167 HD
ENDBRANCH  36  38
ENDBRANCH  14  36
TORSDOF 6
ENDMDL
MODEL 3
REMARK VINA RESULT:   -10.597     19.800     20.981
REMARK INTER + INTRA:         -11.766
REMARK INTER:                 -13.085
REMARK INTRA:                   1.319
REMARK UNBOUND:                 1.309
REMARK  6 active torsions:
REMARK  status: ('A' for Active; 'I' for Inactive)
REMARK    1  A    between atoms: C_22  and  O_1 
REMARK    2  A    between atoms: C_24  and  O_2 
REMARK    3  A    between atoms: O_3  and  C_30 
REMARK    4  A    between atoms: O_4  and  C_33 
REMARK    5  A    between atoms: C_14  and  C_30 
REMARK    6  A    between atoms: C_19  and  C_33 
ROOT
ATOM      1  C   UNL d   1      30.403  27.165  -0.598  0.00  0.00    -0.028 A 
ATOM      2  C   UNL d   1      29.730  27.897  -0.705  0.00  0.00     0.007 A 
ATOM      3  C   UNL d   1      29.597  28.371  -1.623  0.00  0.00    -0.033 A 
ATOM      4  C   UNL d   1      30.520  26.720   0.289  0.00  0.00    -0.013 A 
ATOM      5  C   UNL d   1      30.172  28.078  -2.440  0.00  0.00     0.007 A 
ATOM      6  C   UNL d   1      30.989  26.856  -1.401  0.00  0.00     0.011 A 
ATOM      7  C   UNL d   1      29.964  27.006   1.070  0.00  0.00    -0.069 A 
ATOM      8  C   UNL d   1      30.873  27.316  -2.329  0.00  0.00     0.007 A 
ATOM      9  C   UNL d   1      30.050  28.557  -3.407  0.00  0.00     0.010 A 
ATOM     10  C   UNL d   1      30.075  26.551   2.001  0.00  0.00     0.038 A 
ATOM     11  C   UNL d   1      29.174  28.184   0.075  0.00  0.00     0.033 A 
ATOM     12  C   UNL d   1      28.861  29.163  -1.715  0.00  0.00     0.044 A 
ATOM     13  C   UNL d   1      31.225  25.959   0.385  0.00  0.00     0.016 A 
ATOM     14  C   UNL d   1      30.774  25.788   2.120  0.00  0.00     0.053 A 
ATOM     15  C   UNL d   1      31.122  26.509  -0.827  0.00  0.00     0.016 C 
ATOM     16  C   UNL d   1      31.353  25.490   1.307  0.00  0.00     0.022 A 
ATOM     17  C   UNL d   1      29.321  29.351  -3.523  0.00  0.00     0.157 A 
ATOM     18  C   UNL d   1      29.291  27.738   0.963  0.00  0.00    -0.022 A 
ATOM     19  C   UNL d   1      28.722  29.656  -2.672  0.00  0.00     0.148 A 
ATOM     20  C   UNL d   1      29.045  28.652  -0.838  0.00  0.00     0.016 C 
ATOM     21  C   UNL d   1      31.198  26.218  -0.248  0.00  0.00     0.021 C 
ATOM     22  C   UNL d   1      29.461  26.879   2.832  0.00  0.00    -0.005 A 
ATOM     23  C   UNL d   1      30.907  25.300   3.079  0.00  0.00     0.021 A 
ATOM     24  C   UNL d   1      29.576  26.405   3.802  0.00  0.00    -0.014 A 
ATOM     25  C   UNL d   1      30.760  27.967  -3.792  0.00  0.00     0.020 C 
ATOM     26  C   UNL d   1      30.304  25.610   3.926  0.00  0.00     0.006 A 
ATOM     27  C   UNL d   1      28.792  27.613   2.707  0.00  0.00     0.011 C 
ATOM     28  C   UNL d   1      29.015  26.700   4.575  0.00  0.00     0.010 C 
ENDROOT
BRANCH   9  29
ATOM     29  C   UNL d   1      30.307  28.646  -4.369  0.00  0.00     0.176 C 
BRANCH  29  30
ATOM     30  O   UNL d   1      30.614  27.844  -4.882  0.00  0.00    -0.400 OA
ATOM     31  H   UNL d   1      30.288  27.317  -4.857  0.00  0.00     0.209 HD
ENDBRANCH  29  30
ENDBRANCH   9  29
BRANCH  17  32
ATOM     32  O   UNL d   1      29.201  29.799  -4.409  0.00  0.00    -0.392 OA
ATOM     33  H   UNL d   1      29.388  30.385  -4.488  0.00  0.00     0.210 HD
ENDBRANCH  17  32
BRANCH  19  34
ATOM     34  O   UNL d   1      28.046  30.387  -2.768  0.00  0.00    -0.393 OA
ATOM     35  H   UNL d   1      27.547  30.398  -2.399  0.00  0.00     0.210 HD
ENDBRANCH  19  34
BRANCH  14  36
ATOM     36  C   UNL d   1      31.444  25.056   2.235  0.00  0.00     0.149 C 
ATOM     37  O   UNL d   1      32.369  25.270   2.549  0.00  0.00    -0.649 OA
BRANCH  36  38
ATOM     38  O   UNL d   1      31.191  24.109   2.035  0.00  0.00    -0.776 OA
ATOM     39  H   UNL d   1      31.609  23.721   1.792  0.00  0.00     0.167 HD
ENDBRANCH  36  38
ENDBRANCH  14  36
TORSDOF 6
ENDMDL
MODEL 4
REMARK VINA RESULT:   -10.337      3.868      5.724
REMARK INTER + INTRA:         -11.446
REMARK INTER:                 -12.771
REMARK INTRA:                   1.326
REMARK UNBOUND:                 1.309
REMARK  6 active torsions:
REMARK  status: ('A' for Active; 'I' for Inactive)
REMARK    1  A    between atoms: C_22  and  O_1 
REMARK    2  A    between atoms: C_24  and  O_2 
REMARK    3  A    between atoms: O_3  and  C_30 
REMARK    4  A    between atoms: O_4  and  C_33 
REMARK    5  A    between atoms: C_14  and  C_30 
REMARK    6  A    between atoms: C_19  and  C_33 
ROOT
ATOM      1  C   UNL d   1       9.454  22.936   4.822  0.00  0.00    -0.028 A 
ATOM      2  C   UNL d   1       9.814  22.800   3.899  0.00  0.00     0.007 A 
ATOM      3  C   UNL d   1      10.351  21.941   3.656  0.00  0.00    -0.033 A 
ATOM      4  C   UNL d   1       8.940  23.765   5.041  0.00  0.00    -0.013 A 
ATOM      5  C   UNL d   1      10.515  21.215   4.384  0.00  0.00     0.007 A 
ATOM      6  C   UNL d   1       9.606  22.223   5.565  0.00  0.00     0.011 A 
ATOM      7  C   UNL d   1       8.786  24.459   4.336  0.00  0.00    -0.069 A 
ATOM      8  C   UNL d   1      10.140  21.357   5.345  0.00  0.00     0.007 A 
ATOM      9  C   UNL d   1      11.072  20.312   4.154  0.00  0.00     0.010 A 
ATOM     10  C   UNL d   1       8.252  25.328   4.549  0.00  0.00     0.038 A 
ATOM     11  C   UNL d   1       9.660  23.493   3.195  0.00  0.00     0.033 A 
ATOM     12  C   UNL d   1      10.732  21.815   2.648  0.00  0.00     0.044 A 
ATOM     13  C   UNL d   1       8.571  23.893   6.007  0.00  0.00     0.016 A 
ATOM     14  C   UNL d   1       7.874  25.477   5.508  0.00  0.00     0.053 A 
ATOM     15  C   UNL d   1       9.247  22.763   5.785  0.00  0.00     0.016 C 
ATOM     16  C   UNL d   1       8.034  24.754   6.242  0.00  0.00     0.022 A 
ATOM     17  C   UNL d   1      11.463  20.164   3.153  0.00  0.00     0.157 A 
ATOM     18  C   UNL d   1       9.146  24.323   3.414  0.00  0.00    -0.022 A 
ATOM     19  C   UNL d   1      11.292  20.921   2.395  0.00  0.00     0.148 A 
ATOM     20  C   UNL d   1      10.193  22.639   2.957  0.00  0.00     0.016 C 
ATOM     21  C   UNL d   1       8.912  23.304   5.928  0.00  0.00     0.021 C 
ATOM     22  C   UNL d   1       8.098  26.066   3.769  0.00  0.00    -0.005 A 
ATOM     23  C   UNL d   1       7.316  26.374   5.754  0.00  0.00     0.021 A 
ATOM     24  C   UNL d   1       7.543  26.971   3.991  0.00  0.00    -0.014 A 
ATOM     25  C   UNL d   1      10.950  19.994   5.094  0.00  0.00     0.020 C 
ATOM     26  C   UNL d   1       7.149  27.126   4.990  0.00  0.00     0.006 A 
ATOM     27  C   UNL d   1       8.466  25.913   2.851  0.00  0.00     0.011 C 
ATOM     28  C   UNL d   1       7.395  27.658   3.279  0.00  0.00     0.010 C 
ENDROOT
BRANCH   9  29
ATOM     29  C   UNL d   1      11.456  19.434   4.438  0.00  0.00     0.176 C 
BRANCH  29  30
ATOM     30  O   UNL d   1      10.966  18.863   5.098  0.00  0.00    -0.400 OA
ATOM     31  H   UNL d   1      10.407  19.036   5.302  0.00  0.00     0.209 HD
ENDBRANCH  29  30
ENDBRANCH   9  29
BRANCH  17  32
ATOM     32  O   UNL d   1      11.977  19.336   2.930  0.00  0.00    -0.392 OA
ATOM     33  H   UNL d   1      12.237  19.001   3.383  0.00  0.00     0.210 HD
ENDBRANCH  17  32
BRANCH  19  34
ATOM     34  O   UNL d   1      11.647  20.795   1.469  0.00  0.00    -0.393 OA
ATOM     35  H   UNL d   1      11.981  21.244   1.201  0.00  0.00     0.210 HD
ENDBRANCH  19  34
BRANCH  14  36
ATOM     36  C   UNL d   1       7.511  25.620   6.429  0.00  0.00     0.149 C 
ATOM     37  O   UNL d   1       8.065  26.088   7.117  0.00  0.00    -0.649 OA
BRANCH  36  38
ATOM     38  O   UNL d   1       6.595  25.296   6.661  0.00  0.00    -0.776 OA
ATOM     39  H   UNL d   1       6.245  25.615   7.062  0.00  0.00     0.167 HD
ENDBRANCH  36  38
ENDBRANCH  14  36
TORSDOF 6
ENDMDL
MODEL 5
REMARK VINA RESULT:   -10.331     24.096     26.888
REMARK INTER + INTRA:         -11.438
REMARK INTER:                 -12.763
REMARK INTRA:                   1.325
REMARK UNBOUND:                 1.309
REMARK  6 active torsions:
REMARK  status: ('A' for Active; 'I' for Inactive)
REMARK    1  A    between atoms: C_22  and  O_1 
REMARK    2  A    between atoms: C_24  and  O_2 
REMARK    3  A    between atoms: O_3  and  C_30 
REMARK    4  A    between atoms: O_4  and  C_33 
REMARK    5  A    between atoms: C_14  and  C_30 
REMARK    6  A    between atoms: C_19  and  C_33 
ROOT
ATOM      1  C   UNL d   1      36.573  20.487  -5.307  0.00  0.00    -0.028 A 
ATOM      2  C   UNL d   1      37.451  20.725  -4.893  0.00  0.00     0.007 A 
ATOM      3  C   UNL d   1      38.196  20.008  -4.769  0.00  0.00    -0.033 A 
ATOM      4  C   UNL d   1      35.867  21.186  -5.419  0.00  0.00    -0.013 A 
ATOM      5  C   UNL d   1      38.024  19.029  -5.080  0.00  0.00     0.007 A 
ATOM      6  C   UNL d   1      36.379  19.515  -5.625  0.00  0.00     0.011 A 
ATOM      7  C   UNL d   1      36.040  22.124  -5.118  0.00  0.00    -0.069 A 
ATOM      8  C   UNL d   1      37.109  18.781  -5.511  0.00  0.00     0.007 A 
ATOM      9  C   UNL d   1      38.785  18.264  -4.961  0.00  0.00     0.010 A 
ATOM     10  C   UNL d   1      35.314  22.863  -5.229  0.00  0.00     0.038 A 
ATOM     11  C   UNL d   1      37.624  21.663  -4.591  0.00  0.00     0.033 A 
ATOM     12  C   UNL d   1      39.142  20.290  -4.317  0.00  0.00     0.044 A 
ATOM     13  C   UNL d   1      34.957  20.922  -5.852  0.00  0.00     0.016 A 
ATOM     14  C   UNL d   1      34.397  22.623  -5.659  0.00  0.00     0.053 A 
ATOM     15  C   UNL d   1      35.852  19.940  -5.733  0.00  0.00     0.016 C 
ATOM     16  C   UNL d   1      34.217  21.645  -5.973  0.00  0.00     0.022 A 
ATOM     17  C   UNL d   1      39.738  18.523  -4.512  0.00  0.00     0.157 A 
ATOM     18  C   UNL d   1      36.918  22.362  -4.704  0.00  0.00    -0.022 A 
ATOM     19  C   UNL d   1      39.918  19.542  -4.188  0.00  0.00     0.148 A 
ATOM     20  C   UNL d   1      38.362  20.947  -4.470  0.00  0.00     0.016 C 
ATOM     21  C   UNL d   1      35.392  20.396  -5.806  0.00  0.00     0.021 C 
ATOM     22  C   UNL d   1      35.524  23.873  -4.894  0.00  0.00    -0.005 A 
ATOM     23  C   UNL d   1      33.626  23.375  -5.785  0.00  0.00     0.021 A 
ATOM     24  C   UNL d   1      34.769  24.643  -5.010  0.00  0.00    -0.014 A 
ATOM     25  C   UNL d   1      38.175  17.588  -5.375  0.00  0.00     0.020 C 
ATOM     26  C   UNL d   1      33.813  24.393  -5.458  0.00  0.00     0.006 A 
ATOM     27  C   UNL d   1      36.409  24.094  -4.482  0.00  0.00     0.011 C 
ATOM     28  C   UNL d   1      34.953  25.578  -4.705  0.00  0.00     0.010 C 
ENDROOT
BRANCH   9  29
ATOM     29  C   UNL d   1      39.089  17.318  -5.072  0.00  0.00     0.176 C 
BRANCH  29  30
ATOM     30  O   UNL d   1      38.429  16.570  -5.007  0.00  0.00    -0.400 OA
ATOM     31  H   UNL d   1      38.517  16.050  -5.333  0.00  0.00     0.209 HD
ENDBRANCH  29  30
ENDBRANCH   9  29
BRANCH  17  32
ATOM     32  O   UNL d   1      40.446  17.827  -4.398  0.00  0.00    -0.392 OA
ATOM     33  H   UNL d   1      40.399  17.284  -4.694  0.00  0.00     0.210 HD
ENDBRANCH  17  32
BRANCH  19  34
ATOM     34  O   UNL d   1      40.792  19.792  -3.773  0.00  0.00    -0.393 OA
ATOM     35  H   UNL d   1      41.263  19.388  -3.775  0.00  0.00     0.210 HD
ENDBRANCH  19  34
BRANCH  14  36
ATOM     36  C   UNL d   1      33.516  22.392  -6.072  0.00  0.00     0.149 C 
ATOM     37  O   UNL d   1      33.411  22.409  -7.066  0.00  0.00    -0.649 OA
BRANCH  36  38
ATOM     38  O   UNL d   1      32.741  22.144  -5.492  0.00  0.00    -0.776 OA
ATOM     39  H   UNL d   1      32.727  22.324  -4.899  0.00  0.00     0.167 HD
ENDBRANCH  36  38
ENDBRANCH  14  36
TORSDOF 6
ENDMDL
