MODEL 1
REMARK VINA RESULT:    -8.986      0.000      0.000
REMARK INTER + INTRA:           0.338
REMARK INTER:                 -12.369
REMARK INTRA:                  12.707
REMARK UNBOUND:                12.475
REMARK  9 active torsions:
REMARK  status: ('A' for Active; 'I' for Inactive)
REMARK    1  A    between atoms: C_15  and  O_2 
REMARK    2  A    between atoms: O_2  and  C_17 
REMARK    3  A    between atoms: C_11  and  O_3 
REMARK    4  A    between atoms: C_12  and  O_4 
REMARK    5  A    between atoms: C_13  and  O_5 
REMARK    6  A    between atoms: O_8  and  C_23 
REMARK    7  A    between atoms: O_9  and  C_28 
REMARK    8  A    between atoms: O_10  and  C_31 
REMARK    9  A    between atoms: C_18  and  C_22 
ROOT
ATOM      1  O   UNL d   1     -37.560 -17.421  37.390  0.00  0.00    -0.306 OA
ATOM      2  O   UNL d   1     -39.896 -17.437  39.273  0.00  0.00    -0.284 OA
ATOM      3  C   UNL d   1     -39.145 -17.980  37.810  0.00  0.00     0.157 A 
ATOM      4  C   UNL d   1     -38.366 -17.974  37.182  0.00  0.00     0.123 A 
ATOM      5  C   UNL d   1     -39.118 -17.431  38.645  0.00  0.00     0.223 A 
ATOM      6  C   UNL d   1     -38.311 -16.878  38.853  0.00  0.00     0.084 A 
ATOM      7  C   UNL d   1     -37.533 -16.872  38.226  0.00  0.00     0.096 A 
ATOM      8  C   UNL d   1     -38.297 -16.311  39.728  0.00  0.00     0.085 A 
ATOM      9  C   UNL d   1     -36.686 -16.300  38.429  0.00  0.00     0.075 A 
ATOM     10  C   UNL d   1     -37.461 -15.732  39.952  0.00  0.00     0.074 A 
ATOM     11  C   UNL d   1     -36.650 -15.726  39.298  0.00  0.00     0.071 A 
ENDROOT
BRANCH   3  12
ATOM     12  O   UNL d   1     -39.951 -18.534  37.601  0.00  0.00    -0.311 OA
BRANCH  12  13
ATOM     13  C   UNL d   1     -40.817 -18.090  37.371  0.00  0.00     0.298 A 
ATOM     14  O   UNL d   1     -40.821 -17.264  36.808  0.00  0.00    -0.351 OA
ATOM     15  C   UNL d   1     -41.687 -16.819  36.578  0.00  0.00     0.152 A 
ATOM     16  C   UNL d   1     -42.549 -17.202  36.912  0.00  0.00     0.178 A 
ATOM     17  C   UNL d   1     -41.692 -15.993  36.015  0.00  0.00     0.042 C 
ATOM     18  C   UNL d   1     -42.545 -18.028  37.475  0.00  0.00     0.183 A 
ATOM     19  C   UNL d   1     -41.679 -18.472  37.705  0.00  0.00     0.205 A 
BRANCH  16  20
ATOM     20  O   UNL d   1     -43.415 -16.758  36.682  0.00  0.00    -0.390 OA
ATOM     21  H   UNL d   1     -43.713 -16.419  37.108  0.00  0.00     0.210 HD
ENDBRANCH  16  20
BRANCH  18  22
ATOM     22  O   UNL d   1     -43.407 -18.410  37.809  0.00  0.00    -0.390 OA
ATOM     23  H   UNL d   1     -43.414 -18.757  38.322  0.00  0.00     0.210 HD
ENDBRANCH  18  22
BRANCH  19  24
ATOM     24  O   UNL d   1     -41.675 -19.298  38.268  0.00  0.00    -0.388 OA
ATOM     25  H   UNL d   1     -41.346 -19.313  38.794  0.00  0.00     0.210 HD
ENDBRANCH  19  24
ENDBRANCH  12  13
ENDBRANCH   3  12
BRANCH   4  26
ATOM     26  C   UNL d   1     -38.394 -18.523  36.346  0.00  0.00     0.001 A 
ATOM     27  C   UNL d   1     -38.374 -18.074  35.453  0.00  0.00     0.017 A 
ATOM     28  C   UNL d   1     -38.401 -18.623  34.617  0.00  0.00     0.037 A 
ATOM     29  C   UNL d   1     -38.449 -19.620  34.675  0.00  0.00     0.065 A 
ATOM     30  C   UNL d   1     -38.469 -20.068  35.568  0.00  0.00     0.037 A 
ATOM     31  C   UNL d   1     -38.442 -19.520  36.404  0.00  0.00     0.017 A 
BRANCH  29  32
ATOM     32  O   UNL d   1     -38.477 -20.168  33.839  0.00  0.00    -0.361 OA
ATOM     33  H   UNL d   1     -37.998 -20.156  33.445  0.00  0.00     0.217 HD
ENDBRANCH  29  32
ENDBRANCH   4  26
BRANCH   8  34
ATOM     34  O   UNL d   1     -39.081 -16.324  40.348  0.00  0.00    -0.360 OA
ATOM     35  H   UNL d   1     -38.997 -16.237  40.957  0.00  0.00     0.217 HD
ENDBRANCH   8  34
BRANCH  11  36
ATOM     36  O   UNL d   1     -35.842 -15.173  39.503  0.00  0.00    -0.361 OA
ATOM     37  H   UNL d   1     -35.908 -14.588  39.698  0.00  0.00     0.217 HD
ENDBRANCH  11  36
TORSDOF 9
ENDMDL
MODEL 2
REMARK VINA RESULT:    -8.845      1.134      4.159
REMARK INTER + INTRA:           0.528
REMARK INTER:                 -11.935
REMARK INTRA:                  12.463
REMARK UNBOUND:                12.475
REMARK  9 active torsions:
REMARK  status: ('A' for Active; 'I' for Inactive)
REMARK    1  A    between atoms: C_15  and  O_2 
REMARK    2  A    between atoms: O_2  and  C_17 
REMARK    3  A    between atoms: C_11  and  O_3 
REMARK    4  A    between atoms: C_12  and  O_4 
REMARK    5  A    between atoms: C_13  and  O_5 
REMARK    6  A    between atoms: O_8  and  C_23 
REMARK    7  A    between atoms: O_9  and  C_28 
REMARK    8  A    between atoms: O_10  and  C_31 
REMARK    9  A    between atoms: C_18  and  C_22 
ROOT
ATOM      1  O   UNL d   1     -37.489 -18.551  35.805  0.00  0.00    -0.306 OA
ATOM      2  O   UNL d   1     -40.120 -19.983  35.647  0.00  0.00    -0.284 OA
ATOM      3  C   UNL d   1     -39.060 -18.880  36.458  0.00  0.00     0.157 A 
ATOM      4  C   UNL d   1     -38.183 -18.402  36.511  0.00  0.00     0.123 A 
ATOM      5  C   UNL d   1     -39.243 -19.506  35.700  0.00  0.00     0.223 A 
ATOM      6  C   UNL d   1     -38.550 -19.654  34.995  0.00  0.00     0.084 A 
ATOM      7  C   UNL d   1     -37.673 -19.177  35.048  0.00  0.00     0.096 A 
ATOM      8  C   UNL d   1     -38.756 -20.309  34.211  0.00  0.00     0.085 A 
ATOM      9  C   UNL d   1     -36.940 -19.321  34.320  0.00  0.00     0.075 A 
ATOM     10  C   UNL d   1     -38.038 -20.469  33.473  0.00  0.00     0.074 A 
ATOM     11  C   UNL d   1     -37.124 -19.972  33.528  0.00  0.00     0.071 A 
ENDROOT
BRANCH   3  12
ATOM     12  O   UNL d   1     -39.753 -18.731  37.163  0.00  0.00    -0.311 OA
BRANCH  12  13
ATOM     13  C   UNL d   1     -40.590 -18.231  36.943  0.00  0.00     0.298 A 
ATOM     14  O   UNL d   1     -40.602 -17.587  36.178  0.00  0.00    -0.351 OA
ATOM     15  C   UNL d   1     -41.439 -17.087  35.958  0.00  0.00     0.152 A 
ATOM     16  C   UNL d   1     -42.265 -17.230  36.503  0.00  0.00     0.178 A 
ATOM     17  C   UNL d   1     -41.451 -16.443  35.193  0.00  0.00     0.042 C 
ATOM     18  C   UNL d   1     -42.254 -17.874  37.268  0.00  0.00     0.183 A 
ATOM     19  C   UNL d   1     -41.416 -18.374  37.488  0.00  0.00     0.205 A 
BRANCH  16  20
ATOM     20  O   UNL d   1     -43.103 -16.730  36.283  0.00  0.00    -0.390 OA
ATOM     21  H   UNL d   1     -43.603 -16.788  36.646  0.00  0.00     0.210 HD
ENDBRANCH  16  20
BRANCH  18  22
ATOM     22  O   UNL d   1     -43.080 -18.017  37.814  0.00  0.00    -0.390 OA
ATOM     23  H   UNL d   1     -43.133 -17.751  38.371  0.00  0.00     0.210 HD
ENDBRANCH  18  22
BRANCH  19  24
ATOM     24  O   UNL d   1     -41.405 -19.018  38.254  0.00  0.00    -0.388 OA
ATOM     25  H   UNL d   1     -41.798 -19.497  38.262  0.00  0.00     0.210 HD
ENDBRANCH  19  24
ENDBRANCH  12  13
ENDBRANCH   3  12
BRANCH   4  26
ATOM     26  C   UNL d   1     -37.999 -17.777  37.268  0.00  0.00     0.001 A 
ATOM     27  C   UNL d   1     -37.897 -18.133  38.197  0.00  0.00     0.017 A 
ATOM     28  C   UNL d   1     -37.713 -17.507  38.955  0.00  0.00     0.037 A 
ATOM     29  C   UNL d   1     -37.631 -16.525  38.784  0.00  0.00     0.065 A 
ATOM     30  C   UNL d   1     -37.733 -16.169  37.855  0.00  0.00     0.037 A 
ATOM     31  C   UNL d   1     -37.917 -16.795  37.098  0.00  0.00     0.017 A 
BRANCH  29  32
ATOM     32  O   UNL d   1     -37.448 -15.899  39.542  0.00  0.00    -0.361 OA
ATOM     33  H   UNL d   1     -37.046 -16.059  39.987  0.00  0.00     0.217 HD
ENDBRANCH  29  32
ENDBRANCH   4  26
BRANCH   8  34
ATOM     34  O   UNL d   1     -39.636 -20.781  34.168  0.00  0.00    -0.360 OA
ATOM     35  H   UNL d   1     -39.746 -21.193  33.717  0.00  0.00     0.217 HD
ENDBRANCH   8  34
BRANCH  11  36
ATOM     36  O   UNL d   1     -36.428 -20.118  32.825  0.00  0.00    -0.361 OA
ATOM     37  H   UNL d   1     -35.922 -19.759  32.810  0.00  0.00     0.217 HD
ENDBRANCH  11  36
TORSDOF 9
ENDMDL
MODEL 3
REMARK VINA RESULT:    -8.697     26.648     28.726
REMARK INTER + INTRA:           0.728
REMARK INTER:                 -11.698
REMARK INTRA:                  12.427
REMARK UNBOUND:                12.475
REMARK  9 active torsions:
REMARK  status: ('A' for Active; 'I' for Inactive)
REMARK    1  A    between atoms: C_15  and  O_2 
REMARK    2  A    between atoms: O_2  and  C_17 
REMARK    3  A    between atoms: C_11  and  O_3 
REMARK    4  A    between atoms: C_12  and  O_4 
REMARK    5  A    between atoms: C_13  and  O_5 
REMARK    6  A    between atoms: O_8  and  C_23 
REMARK    7  A    between atoms: O_9  and  C_28 
REMARK    8  A    between atoms: O_10  and  C_31 
REMARK    9  A    between atoms: C_18  and  C_22 
ROOT
ATOM      1  O   UNL d   1     -16.207 -32.057  36.862  0.00  0.00    -0.306 OA
ATOM      2  O   UNL d   1     -15.207 -33.916  38.993  0.00  0.00    -0.284 OA
ATOM      3  C   UNL d   1     -15.505 -33.572  37.322  0.00  0.00     0.157 A 
ATOM      4  C   UNL d   1     -15.839 -32.953  36.611  0.00  0.00     0.123 A 
ATOM      5  C   UNL d   1     -15.540 -33.296  38.283  0.00  0.00     0.223 A 
ATOM      6  C   UNL d   1     -15.908 -32.401  38.533  0.00  0.00     0.084 A 
ATOM      7  C   UNL d   1     -16.242 -31.781  37.822  0.00  0.00     0.096 A 
ATOM      8  C   UNL d   1     -15.938 -32.128  39.537  0.00  0.00     0.085 A 
ATOM      9  C   UNL d   1     -16.628 -30.845  38.067  0.00  0.00     0.075 A 
ATOM     10  C   UNL d   1     -16.320 -31.196  39.806  0.00  0.00     0.074 A 
ATOM     11  C   UNL d   1     -16.668 -30.550  39.066  0.00  0.00     0.071 A 
ENDROOT
BRANCH   3  12
ATOM     12  O   UNL d   1     -15.137 -34.468  37.072  0.00  0.00    -0.311 OA
BRANCH  12  13
ATOM     13  C   UNL d   1     -15.639 -35.299  37.311  0.00  0.00     0.298 A 
ATOM     14  O   UNL d   1     -16.627 -35.262  37.459  0.00  0.00    -0.351 OA
ATOM     15  C   UNL d   1     -17.129 -36.093  37.698  0.00  0.00     0.152 A 
ATOM     16  C   UNL d   1     -16.642 -36.962  37.789  0.00  0.00     0.178 A 
ATOM     17  C   UNL d   1     -18.117 -36.056  37.846  0.00  0.00     0.042 C 
ATOM     18  C   UNL d   1     -15.654 -36.999  37.641  0.00  0.00     0.183 A 
ATOM     19  C   UNL d   1     -15.152 -36.168  37.402  0.00  0.00     0.205 A 
BRANCH  16  20
ATOM     20  O   UNL d   1     -17.144 -37.793  38.028  0.00  0.00    -0.390 OA
ATOM     21  H   UNL d   1     -17.764 -37.795  38.016  0.00  0.00     0.210 HD
ENDBRANCH  16  20
BRANCH  18  22
ATOM     22  O   UNL d   1     -15.167 -37.868  37.732  0.00  0.00    -0.390 OA
ATOM     23  H   UNL d   1     -15.198 -38.187  38.263  0.00  0.00     0.210 HD
ENDBRANCH  18  22
BRANCH  19  24
ATOM     24  O   UNL d   1     -14.164 -36.205  37.254  0.00  0.00    -0.388 OA
ATOM     25  H   UNL d   1     -13.938 -36.443  36.728  0.00  0.00     0.210 HD
ENDBRANCH  19  24
ENDBRANCH  12  13
ENDBRANCH   3  12
BRANCH   4  26
ATOM     26  C   UNL d   1     -15.804 -33.229  35.651  0.00  0.00     0.001 A 
ATOM     27  C   UNL d   1     -14.923 -33.310  35.186  0.00  0.00     0.017 A 
ATOM     28  C   UNL d   1     -14.888 -33.586  34.225  0.00  0.00     0.037 A 
ATOM     29  C   UNL d   1     -15.735 -33.780  33.730  0.00  0.00     0.065 A 
ATOM     30  C   UNL d   1     -16.616 -33.699  34.195  0.00  0.00     0.037 A 
ATOM     31  C   UNL d   1     -16.651 -33.423  35.156  0.00  0.00     0.017 A 
BRANCH  29  32
ATOM     32  O   UNL d   1     -15.700 -34.056  32.769  0.00  0.00    -0.361 OA
ATOM     33  H   UNL d   1     -15.434 -33.686  32.350  0.00  0.00     0.217 HD
ENDBRANCH  29  32
ENDBRANCH   4  26
BRANCH   8  34
ATOM     34  O   UNL d   1     -15.602 -32.755  40.240  0.00  0.00    -0.360 OA
ATOM     35  H   UNL d   1     -15.997 -33.005  40.647  0.00  0.00     0.217 HD
ENDBRANCH   8  34
BRANCH  11  36
ATOM     36  O   UNL d   1     -17.037 -29.654  39.312  0.00  0.00    -0.361 OA
ATOM     37  H   UNL d   1     -16.757 -29.313  39.747  0.00  0.00     0.217 HD
ENDBRANCH  11  36
TORSDOF 9
ENDMDL
MODEL 4
REMARK VINA RESULT:    -8.663      2.550      4.512
REMARK INTER + INTRA:           0.773
REMARK INTER:                 -11.917
REMARK INTRA:                  12.690
REMARK UNBOUND:                12.475
REMARK  9 active torsions:
REMARK  status: ('A' for Active; 'I' for Inactive)
REMARK    1  A    between atoms: C_15  and  O_2 
REMARK    2  A    between atoms: O_2  and  C_17 
REMARK    3  A    between atoms: C_11  and  O_3 
REMARK    4  A    between atoms: C_12  and  O_4 
REMARK    5  A    between atoms: C_13  and  O_5 
REMARK    6  A    between atoms: O_8  and  C_23 
REMARK    7  A    between atoms: O_9  and  C_28 
REMARK    8  A    between atoms: O_10  and  C_31 
REMARK    9  A    between atoms: C_18  and  C_22 
ROOT
ATOM      1  O   UNL d   1     -37.424 -18.414  34.723  0.00  0.00    -0.306 OA
ATOM      2  O   UNL d   1     -39.131 -20.572  35.918  0.00  0.00    -0.284 OA
ATOM      3  C   UNL d   1     -38.168 -19.974  34.608  0.00  0.00     0.157 A 
ATOM      4  C   UNL d   1     -37.599 -19.255  34.210  0.00  0.00     0.123 A 
ATOM      5  C   UNL d   1     -38.562 -19.853  35.520  0.00  0.00     0.223 A 
ATOM      6  C   UNL d   1     -38.386 -19.012  36.033  0.00  0.00     0.084 A 
ATOM      7  C   UNL d   1     -37.817 -18.293  35.634  0.00  0.00     0.096 A 
ATOM      8  C   UNL d   1     -38.803 -18.900  36.981  0.00  0.00     0.085 A 
ATOM      9  C   UNL d   1     -37.625 -17.412  36.156  0.00  0.00     0.075 A 
ATOM     10  C   UNL d   1     -38.624 -18.028  37.521  0.00  0.00     0.074 A 
ATOM     11  C   UNL d   1     -38.031 -17.278  37.106  0.00  0.00     0.071 A 
ENDROOT
BRANCH   3  12
ATOM     12  O   UNL d   1     -38.344 -20.814  34.096  0.00  0.00    -0.311 OA
BRANCH  12  13
ATOM     13  C   UNL d   1     -39.255 -20.991  33.722  0.00  0.00     0.298 A 
ATOM     14  O   UNL d   1     -39.952 -20.274  33.745  0.00  0.00    -0.351 OA
ATOM     15  C   UNL d   1     -40.863 -20.451  33.371  0.00  0.00     0.152 A 
ATOM     16  C   UNL d   1     -41.076 -21.344  32.975  0.00  0.00     0.178 A 
ATOM     17  C   UNL d   1     -41.560 -19.735  33.394  0.00  0.00     0.042 C 
ATOM     18  C   UNL d   1     -40.378 -22.060  32.952  0.00  0.00     0.183 A 
ATOM     19  C   UNL d   1     -39.468 -21.884  33.325  0.00  0.00     0.205 A 
BRANCH  16  20
ATOM     20  O   UNL d   1     -41.986 -21.521  32.601  0.00  0.00    -0.390 OA
ATOM     21  H   UNL d   1     -42.238 -22.085  32.652  0.00  0.00     0.210 HD
ENDBRANCH  16  20
BRANCH  18  22
ATOM     22  O   UNL d   1     -40.592 -22.953  32.555  0.00  0.00    -0.390 OA
ATOM     23  H   UNL d   1     -40.501 -23.053  31.950  0.00  0.00     0.210 HD
ENDBRANCH  18  22
BRANCH  19  24
ATOM     24  O   UNL d   1     -38.770 -22.600  33.302  0.00  0.00    -0.388 OA
ATOM     25  H   UNL d   1     -38.199 -22.470  33.101  0.00  0.00     0.210 HD
ENDBRANCH  19  24
ENDBRANCH  12  13
ENDBRANCH   3  12
BRANCH   4  26
ATOM     26  C   UNL d   1     -37.206 -19.376  33.298  0.00  0.00     0.001 A 
ATOM     27  C   UNL d   1     -36.388 -19.938  33.178  0.00  0.00     0.017 A 
ATOM     28  C   UNL d   1     -35.995 -20.059  32.266  0.00  0.00     0.037 A 
ATOM     29  C   UNL d   1     -36.419 -19.618  31.476  0.00  0.00     0.065 A 
ATOM     30  C   UNL d   1     -37.237 -19.056  31.597  0.00  0.00     0.037 A 
ATOM     31  C   UNL d   1     -37.631 -18.935  32.508  0.00  0.00     0.017 A 
BRANCH  29  32
ATOM     32  O   UNL d   1     -36.026 -19.739  30.564  0.00  0.00    -0.361 OA
ATOM     33  H   UNL d   1     -36.378 -19.952  30.100  0.00  0.00     0.217 HD
ENDBRANCH  29  32
ENDBRANCH   4  26
BRANCH   8  34
ATOM     34  O   UNL d   1     -39.370 -19.626  37.370  0.00  0.00    -0.360 OA
ATOM     35  H   UNL d   1     -39.929 -19.745  37.129  0.00  0.00     0.217 HD
ENDBRANCH   8  34
BRANCH  11  36
ATOM     36  O   UNL d   1     -37.853 -16.437  37.616  0.00  0.00    -0.361 OA
ATOM     37  H   UNL d   1     -37.837 -16.447  38.236  0.00  0.00     0.217 HD
ENDBRANCH  11  36
TORSDOF 9
ENDMDL
MODEL 5
REMARK VINA RESULT:    -8.536      1.745      2.208
REMARK INTER + INTRA:           0.945
REMARK INTER:                 -12.035
REMARK INTRA:                  12.980
REMARK UNBOUND:                12.475
REMARK  9 active torsions:
REMARK  status: ('A' for Active; 'I' for Inactive)
REMARK    1  A    between atoms: C_15  and  O_2 
REMARK    2  A    between atoms: O_2  and  C_17 
REMARK    3  A    between atoms: C_11  and  O_3 
REMARK    4  A    between atoms: C_12  and  O_4 
REMARK    5  A    between atoms: C_13  and  O_5 
REMARK    6  A    between atoms: O_8  and  C_23 
REMARK    7  A    between atoms: O_9  and  C_28 
REMARK    8  A    between atoms: O_10  and  C_31 
REMARK    9  A    between atoms: C_18  and  C_22 
ROOT
ATOM      1  O   UNL d   1     -37.709 -17.924  36.568  0.00  0.00    -0.306 OA
ATOM      2  O   UNL d   1     -40.477 -18.653  37.467  0.00  0.00    -0.284 OA
ATOM      3  C   UNL d   1     -39.225 -18.708  36.271  0.00  0.00     0.157 A 
ATOM      4  C   UNL d   1     -38.302 -18.465  35.971  0.00  0.00     0.123 A 
ATOM      5  C   UNL d   1     -39.554 -18.410  37.167  0.00  0.00     0.223 A 
ATOM      6  C   UNL d   1     -38.961 -17.869  37.763  0.00  0.00     0.084 A 
ATOM      7  C   UNL d   1     -38.038 -17.626  37.464  0.00  0.00     0.096 A 
ATOM      8  C   UNL d   1     -39.318 -17.566  38.694  0.00  0.00     0.085 A 
ATOM      9  C   UNL d   1     -37.409 -17.063  38.074  0.00  0.00     0.075 A 
ATOM     10  C   UNL d   1     -38.705 -17.002  39.321  0.00  0.00     0.074 A 
ATOM     11  C   UNL d   1     -37.744 -16.749  39.009  0.00  0.00     0.071 A 
ENDROOT
BRANCH   3  12
ATOM     12  O   UNL d   1     -39.818 -19.249  35.675  0.00  0.00    -0.311 OA
BRANCH  12  13
ATOM     13  C   UNL d   1     -40.580 -18.811  35.197  0.00  0.00     0.298 A 
ATOM     14  O   UNL d   1     -40.774 -17.842  35.348  0.00  0.00    -0.351 OA
ATOM     15  C   UNL d   1     -41.535 -17.404  34.869  0.00  0.00     0.152 A 
ATOM     16  C   UNL d   1     -42.102 -17.935  34.240  0.00  0.00     0.178 A 
ATOM     17  C   UNL d   1     -41.729 -16.435  35.020  0.00  0.00     0.042 C 
ATOM     18  C   UNL d   1     -41.908 -18.905  34.089  0.00  0.00     0.183 A 
ATOM     19  C   UNL d   1     -41.147 -19.342  34.568  0.00  0.00     0.205 A 
BRANCH  16  20
ATOM     20  O   UNL d   1     -42.863 -17.498  33.762  0.00  0.00    -0.390 OA
ATOM     21  H   UNL d   1     -43.279 -17.165  34.080  0.00  0.00     0.210 HD
ENDBRANCH  16  20
BRANCH  18  22
ATOM     22  O   UNL d   1     -42.475 -19.436  33.460  0.00  0.00    -0.390 OA
ATOM     23  H   UNL d   1     -42.462 -19.315  32.852  0.00  0.00     0.210 HD
ENDBRANCH  18  22
BRANCH  19  24
ATOM     24  O   UNL d   1     -40.953 -20.312  34.417  0.00  0.00    -0.388 OA
ATOM     25  H   UNL d   1     -40.973 -20.546  33.843  0.00  0.00     0.210 HD
ENDBRANCH  19  24
ENDBRANCH  12  13
ENDBRANCH   3  12
BRANCH   4  26
ATOM     26  C   UNL d   1     -37.973 -18.763  35.075  0.00  0.00     0.001 A 
ATOM     27  C   UNL d   1     -37.968 -18.123  34.307  0.00  0.00     0.017 A 
ATOM     28  C   UNL d   1     -37.639 -18.421  33.411  0.00  0.00     0.037 A 
ATOM     29  C   UNL d   1     -37.315 -19.359  33.283  0.00  0.00     0.065 A 
ATOM     30  C   UNL d   1     -37.320 -19.998  34.052  0.00  0.00     0.037 A 
ATOM     31  C   UNL d   1     -37.649 -19.700  34.948  0.00  0.00     0.017 A 
BRANCH  29  32
ATOM     32  O   UNL d   1     -36.986 -19.657  32.387  0.00  0.00    -0.361 OA
ATOM     33  H   UNL d   1     -37.274 -20.117  32.089  0.00  0.00     0.217 HD
ENDBRANCH  29  32
ENDBRANCH   4  26
BRANCH   8  34
ATOM     34  O   UNL d   1     -40.242 -17.814  38.984  0.00  0.00    -0.360 OA
ATOM     35  H   UNL d   1     -40.639 -18.061  38.576  0.00  0.00     0.217 HD
ENDBRANCH   8  34
BRANCH  11  36
ATOM     36  O   UNL d   1     -37.148 -16.208  39.602  0.00  0.00    -0.361 OA
ATOM     37  H   UNL d   1     -36.739 -15.814  39.354  0.00  0.00     0.217 HD
ENDBRANCH  11  36
TORSDOF 9
ENDMDL
