MODEL 1
REMARK VINA RESULT:   -11.590      0.000      0.000
REMARK INTER + INTRA:          -6.777
REMARK INTER:                 -15.563
REMARK INTRA:                   8.786
REMARK UNBOUND:                 8.879
REMARK  9 active torsions:
REMARK  status: ('A' for Active; 'I' for Inactive)
REMARK    1  A    between atoms: O_3  and  C_17 
REMARK    2  A    between atoms: O_4  and  C_18 
REMARK    3  A    between atoms: O_5  and  C_19 
REMARK    4  A    between atoms: O_7  and  C_32 
REMARK    5  A    between atoms: O_9  and  C_36 
REMARK    6  A    between atoms: O_10  and  C_40 
REMARK    7  A    between atoms: C_11  and  C_13 
REMARK    8  A    between atoms: C_15  and  C_20 
REMARK    9  A    between atoms: C_22  and  C_29 
ROOT
ATOM      1  O   UNL d   1     -40.295 -19.011  34.512  0.00  0.00    -0.308 OA
ATOM      2  O   UNL d   1     -41.713 -16.744  36.018  0.00  0.00    -0.287 OA
ATOM      3  C   UNL d   1     -38.800 -18.557  35.322  0.00  0.00     0.045 A 
ATOM      4  C   UNL d   1     -39.776 -18.399  35.176  0.00  0.00     0.107 A 
ATOM      5  C   UNL d   1     -40.242 -17.661  35.665  0.00  0.00     0.082 A 
ATOM      6  C   UNL d   1     -38.289 -17.977  35.957  0.00  0.00     0.082 A 
ATOM      7  C   UNL d   1     -39.731 -17.082  36.300  0.00  0.00     0.085 A 
ATOM      8  C   UNL d   1     -38.754 -17.240  36.446  0.00  0.00     0.075 A 
ATOM      9  C   UNL d   1     -41.312 -18.852  34.355  0.00  0.00     0.090 A 
ATOM     10  C   UNL d   1     -41.258 -17.485  35.523  0.00  0.00     0.190 A 
ATOM     11  C   UNL d   1     -41.798 -18.084  34.864  0.00  0.00     0.094 A 
ENDROOT
BRANCH   3  12
ATOM     12  C   UNL d   1     -38.334 -19.294  34.833  0.00  0.00     0.014 A 
ATOM     13  C   UNL d   1     -37.881 -19.108  33.961  0.00  0.00     0.029 A 
ATOM     14  C   UNL d   1     -37.415 -19.846  33.472  0.00  0.00    -0.001 A 
ATOM     15  C   UNL d   1     -37.403 -20.770  33.855  0.00  0.00     0.017 A 
ATOM     16  C   UNL d   1     -37.856 -20.956  34.727  0.00  0.00     0.038 A 
ATOM     17  C   UNL d   1     -38.322 -20.218  35.216  0.00  0.00     0.076 A 
BRANCH  14  18
ATOM     18  C   UNL d   1     -36.962 -19.660  32.600  0.00  0.00     0.090 A 
ATOM     19  O   UNL d   1     -37.507 -19.502  31.777  0.00  0.00    -0.309 OA
ATOM     20  C   UNL d   1     -37.054 -19.316  30.905  0.00  0.00     0.095 A 
ATOM     21  C   UNL d   1     -36.055 -19.288  30.857  0.00  0.00     0.081 A 
ATOM     22  C   UNL d   1     -37.635 -19.153  30.056  0.00  0.00     0.075 A 
ATOM     23  C   UNL d   1     -35.510 -19.446  31.680  0.00  0.00     0.190 A 
ATOM     24  C   UNL d   1     -35.569 -19.095  29.956  0.00  0.00     0.085 A 
ATOM     25  O   UNL d   1     -34.512 -19.418  31.632  0.00  0.00    -0.287 OA
ATOM     26  C   UNL d   1     -35.963 -19.632  32.552  0.00  0.00     0.094 A 
ATOM     27  C   UNL d   1     -36.130 -18.929  29.094  0.00  0.00     0.074 A 
ATOM     28  C   UNL d   1     -37.171 -18.959  29.144  0.00  0.00     0.071 A 
BRANCH  24  29
ATOM     29  O   UNL d   1     -34.570 -19.069  29.919  0.00  0.00    -0.360 OA
ATOM     30  H   UNL d   1     -34.285 -18.734  29.482  0.00  0.00     0.217 HD
ENDBRANCH  24  29
BRANCH  28  31
ATOM     31  O   UNL d   1     -37.719 -18.801  28.323  0.00  0.00    -0.361 OA
ATOM     32  H   UNL d   1     -38.335 -18.875  28.343  0.00  0.00     0.217 HD
ENDBRANCH  28  31
ENDBRANCH  14  18
BRANCH  17  33
ATOM     33  O   UNL d   1     -38.775 -20.404  36.087  0.00  0.00    -0.360 OA
ATOM     34  H   UNL d   1     -39.370 -20.248  36.167  0.00  0.00     0.217 HD
ENDBRANCH  17  33
ENDBRANCH   3  12
BRANCH   6  35
ATOM     35  O   UNL d   1     -37.312 -18.135  36.102  0.00  0.00    -0.360 OA
ATOM     36  H   UNL d   1     -36.948 -18.290  35.625  0.00  0.00     0.217 HD
ENDBRANCH   6  35
BRANCH   9  37
ATOM     37  C   UNL d   1     -41.820 -19.434  33.719  0.00  0.00    -0.002 A 
ATOM     38  C   UNL d   1     -41.524 -20.377  33.560  0.00  0.00     0.017 A 
ATOM     39  C   UNL d   1     -42.031 -20.959  32.924  0.00  0.00     0.037 A 
ATOM     40  C   UNL d   1     -42.833 -20.599  32.448  0.00  0.00     0.065 A 
ATOM     41  C   UNL d   1     -43.129 -19.657  32.607  0.00  0.00     0.037 A 
ATOM     42  C   UNL d   1     -42.621 -19.075  33.243  0.00  0.00     0.017 A 
BRANCH  40  43
ATOM     43  O   UNL d   1     -43.340 -21.181  31.812  0.00  0.00    -0.361 OA
ATOM     44  H   UNL d   1     -43.928 -21.043  31.666  0.00  0.00     0.217 HD
ENDBRANCH  40  43
ENDBRANCH   9  37
BRANCH   7  45
ATOM     45  O   UNL d   1     -40.196 -16.344  36.789  0.00  0.00    -0.360 OA
ATOM     46  H   UNL d   1     -39.881 -15.839  36.961  0.00  0.00     0.217 HD
ENDBRANCH   7  45
TORSDOF 9
ENDMDL
MODEL 2
REMARK VINA RESULT:   -10.897      1.149      3.699
REMARK INTER + INTRA:          -5.840
REMARK INTER:                 -15.702
REMARK INTRA:                   9.862
REMARK UNBOUND:                 8.879
REMARK  9 active torsions:
REMARK  status: ('A' for Active; 'I' for Inactive)
REMARK    1  A    between atoms: O_3  and  C_17 
REMARK    2  A    between atoms: O_4  and  C_18 
REMARK    3  A    between atoms: O_5  and  C_19 
REMARK    4  A    between atoms: O_7  and  C_32 
REMARK    5  A    between atoms: O_9  and  C_36 
REMARK    6  A    between atoms: O_10  and  C_40 
REMARK    7  A    between atoms: C_11  and  C_13 
REMARK    8  A    between atoms: C_15  and  C_20 
REMARK    9  A    between atoms: C_22  and  C_29 
ROOT
ATOM      1  O   UNL d   1     -39.329 -18.109  35.876  0.00  0.00    -0.308 OA
ATOM      2  O   UNL d   1     -41.983 -16.619  36.268  0.00  0.00    -0.287 OA
ATOM      3  C   UNL d   1     -40.094 -19.052  34.602  0.00  0.00     0.045 A 
ATOM      4  C   UNL d   1     -40.164 -18.336  35.296  0.00  0.00     0.107 A 
ATOM      5  C   UNL d   1     -41.027 -17.848  35.427  0.00  0.00     0.082 A 
ATOM      6  C   UNL d   1     -40.888 -19.280  34.037  0.00  0.00     0.082 A 
ATOM      7  C   UNL d   1     -41.821 -18.076  34.863  0.00  0.00     0.085 A 
ATOM      8  C   UNL d   1     -41.751 -18.792  34.168  0.00  0.00     0.075 A 
ATOM      9  C   UNL d   1     -39.394 -17.365  36.602  0.00  0.00     0.090 A 
ATOM     10  C   UNL d   1     -41.115 -17.100  36.147  0.00  0.00     0.190 A 
ATOM     11  C   UNL d   1     -40.293 -16.857  36.738  0.00  0.00     0.094 A 
ENDROOT
BRANCH   3  12
ATOM     12  C   UNL d   1     -39.231 -19.539  34.471  0.00  0.00     0.014 A 
ATOM     13  C   UNL d   1     -38.667 -19.350  33.667  0.00  0.00     0.029 A 
ATOM     14  C   UNL d   1     -37.804 -19.838  33.537  0.00  0.00    -0.001 A 
ATOM     15  C   UNL d   1     -37.505 -20.514  34.210  0.00  0.00     0.017 A 
ATOM     16  C   UNL d   1     -38.069 -20.703  35.014  0.00  0.00     0.038 A 
ATOM     17  C   UNL d   1     -38.932 -20.216  35.144  0.00  0.00     0.076 A 
BRANCH  14  18
ATOM     18  C   UNL d   1     -37.239 -19.649  32.733  0.00  0.00     0.090 A 
ATOM     19  O   UNL d   1     -37.672 -19.474  31.849  0.00  0.00    -0.309 OA
ATOM     20  C   UNL d   1     -37.107 -19.285  31.045  0.00  0.00     0.095 A 
ATOM     21  C   UNL d   1     -36.111 -19.272  31.126  0.00  0.00     0.081 A 
ATOM     22  C   UNL d   1     -37.572 -19.105  30.130  0.00  0.00     0.075 A 
ATOM     23  C   UNL d   1     -35.679 -19.447  32.010  0.00  0.00     0.190 A 
ATOM     24  C   UNL d   1     -35.510 -19.077  30.297  0.00  0.00     0.085 A 
ATOM     25  O   UNL d   1     -34.682 -19.433  32.091  0.00  0.00    -0.287 OA
ATOM     26  C   UNL d   1     -36.243 -19.636  32.814  0.00  0.00     0.094 A 
ATOM     27  C   UNL d   1     -35.953 -18.893  29.372  0.00  0.00     0.074 A 
ATOM     28  C   UNL d   1     -36.991 -18.907  29.288  0.00  0.00     0.071 A 
BRANCH  24  29
ATOM     29  O   UNL d   1     -34.514 -19.065  30.390  0.00  0.00    -0.360 OA
ATOM     30  H   UNL d   1     -34.255 -19.001  30.950  0.00  0.00     0.217 HD
ENDBRANCH  24  29
BRANCH  28  31
ATOM     31  O   UNL d   1     -37.427 -18.733  28.405  0.00  0.00    -0.361 OA
ATOM     32  H   UNL d   1     -37.979 -18.451  28.382  0.00  0.00     0.217 HD
ENDBRANCH  28  31
ENDBRANCH  14  18
BRANCH  17  33
ATOM     33  O   UNL d   1     -39.497 -20.404  35.948  0.00  0.00    -0.360 OA
ATOM     34  H   UNL d   1     -39.253 -20.700  36.435  0.00  0.00     0.217 HD
ENDBRANCH  17  33
ENDBRANCH   3  12
BRANCH   6  35
ATOM     35  O   UNL d   1     -40.818 -19.996  33.343  0.00  0.00    -0.360 OA
ATOM     36  H   UNL d   1     -40.272 -20.267  33.230  0.00  0.00     0.217 HD
ENDBRANCH   6  35
BRANCH   9  37
ATOM     37  C   UNL d   1     -38.598 -17.140  37.164  0.00  0.00    -0.002 A 
ATOM     38  C   UNL d   1     -38.361 -17.715  37.948  0.00  0.00     0.017 A 
ATOM     39  C   UNL d   1     -37.566 -17.490  38.510  0.00  0.00     0.037 A 
ATOM     40  C   UNL d   1     -37.007 -16.691  38.289  0.00  0.00     0.065 A 
ATOM     41  C   UNL d   1     -37.243 -16.116  37.505  0.00  0.00     0.037 A 
ATOM     42  C   UNL d   1     -38.039 -16.341  36.943  0.00  0.00     0.017 A 
BRANCH  40  43
ATOM     43  O   UNL d   1     -36.211 -16.466  38.851  0.00  0.00    -0.361 OA
ATOM     44  H   UNL d   1     -36.253 -16.483  39.470  0.00  0.00     0.217 HD
ENDBRANCH  40  43
ENDBRANCH   9  37
BRANCH   7  45
ATOM     45  O   UNL d   1     -42.684 -17.589  34.993  0.00  0.00    -0.360 OA
ATOM     46  H   UNL d   1     -42.786 -17.054  34.696  0.00  0.00     0.217 HD
ENDBRANCH   7  45
TORSDOF 9
ENDMDL
MODEL 3
REMARK VINA RESULT:   -10.810      1.884      5.978
REMARK INTER + INTRA:          -5.723
REMARK INTER:                 -14.262
REMARK INTRA:                   8.539
REMARK UNBOUND:                 8.879
REMARK  9 active torsions:
REMARK  status: ('A' for Active; 'I' for Inactive)
REMARK    1  A    between atoms: O_3  and  C_17 
REMARK    2  A    between atoms: O_4  and  C_18 
REMARK    3  A    between atoms: O_5  and  C_19 
REMARK    4  A    between atoms: O_7  and  C_32 
REMARK    5  A    between atoms: O_9  and  C_36 
REMARK    6  A    between atoms: O_10  and  C_40 
REMARK    7  A    between atoms: C_11  and  C_13 
REMARK    8  A    between atoms: C_15  and  C_20 
REMARK    9  A    between atoms: C_22  and  C_29 
ROOT
ATOM      1  O   UNL d   1     -37.703 -20.771  30.866  0.00  0.00    -0.308 OA
ATOM      2  O   UNL d   1     -35.918 -19.722  28.601  0.00  0.00    -0.287 OA
ATOM      3  C   UNL d   1     -36.616 -20.006  32.020  0.00  0.00     0.045 A 
ATOM      4  C   UNL d   1     -36.851 -20.206  31.069  0.00  0.00     0.107 A 
ATOM      5  C   UNL d   1     -36.272 -19.866  30.329  0.00  0.00     0.082 A 
ATOM      6  C   UNL d   1     -35.801 -19.465  32.230  0.00  0.00     0.082 A 
ATOM      7  C   UNL d   1     -35.457 -19.325  30.539  0.00  0.00     0.085 A 
ATOM      8  C   UNL d   1     -35.222 -19.125  31.490  0.00  0.00     0.075 A 
ATOM      9  C   UNL d   1     -37.954 -20.984  29.878  0.00  0.00     0.090 A 
ATOM     10  C   UNL d   1     -36.504 -20.067  29.334  0.00  0.00     0.190 A 
ATOM     11  C   UNL d   1     -37.350 -20.630  29.106  0.00  0.00     0.094 A 
ENDROOT
BRANCH   3  12
ATOM     12  C   UNL d   1     -37.195 -20.346  32.761  0.00  0.00     0.014 A 
ATOM     13  C   UNL d   1     -37.957 -19.791  33.096  0.00  0.00     0.029 A 
ATOM     14  C   UNL d   1     -38.536 -20.131  33.836  0.00  0.00    -0.001 A 
ATOM     15  C   UNL d   1     -38.354 -21.026  34.243  0.00  0.00     0.017 A 
ATOM     16  C   UNL d   1     -37.592 -21.582  33.908  0.00  0.00     0.038 A 
ATOM     17  C   UNL d   1     -37.013 -21.241  33.167  0.00  0.00     0.076 A 
BRANCH  14  18
ATOM     18  C   UNL d   1     -39.297 -19.576  34.171  0.00  0.00     0.090 A 
ATOM     19  O   UNL d   1     -39.138 -18.878  34.869  0.00  0.00    -0.309 OA
ATOM     20  C   UNL d   1     -39.900 -18.323  35.204  0.00  0.00     0.095 A 
ATOM     21  C   UNL d   1     -40.820 -18.466  34.840  0.00  0.00     0.081 A 
ATOM     22  C   UNL d   1     -39.719 -17.600  35.932  0.00  0.00     0.075 A 
ATOM     23  C   UNL d   1     -40.979 -19.163  34.141  0.00  0.00     0.190 A 
ATOM     24  C   UNL d   1     -41.623 -17.895  35.178  0.00  0.00     0.085 A 
ATOM     25  O   UNL d   1     -41.900 -19.306  33.777  0.00  0.00    -0.287 OA
ATOM     26  C   UNL d   1     -40.218 -19.718  33.807  0.00  0.00     0.094 A 
ATOM     27  C   UNL d   1     -41.466 -17.166  35.906  0.00  0.00     0.074 A 
ATOM     28  C   UNL d   1     -40.507 -17.018  36.286  0.00  0.00     0.071 A 
BRANCH  24  29
ATOM     29  O   UNL d   1     -42.540 -18.046  34.807  0.00  0.00    -0.360 OA
ATOM     30  H   UNL d   1     -42.734 -18.623  34.686  0.00  0.00     0.217 HD
ENDBRANCH  24  29
BRANCH  28  31
ATOM     31  O   UNL d   1     -40.344 -16.321  36.984  0.00  0.00    -0.361 OA
ATOM     32  H   UNL d   1     -39.811 -16.004  36.988  0.00  0.00     0.217 HD
ENDBRANCH  28  31
ENDBRANCH  14  18
BRANCH  17  33
ATOM     33  O   UNL d   1     -36.251 -21.796  32.833  0.00  0.00    -0.360 OA
ATOM     34  H   UNL d   1     -35.805 -21.536  32.491  0.00  0.00     0.217 HD
ENDBRANCH  17  33
ENDBRANCH   3  12
BRANCH   6  35
ATOM     35  O   UNL d   1     -35.566 -19.264  33.181  0.00  0.00    -0.360 OA
ATOM     36  H   UNL d   1     -35.757 -18.735  33.443  0.00  0.00     0.217 HD
ENDBRANCH   6  35
BRANCH   9  37
ATOM     37  C   UNL d   1     -38.769 -21.526  29.672  0.00  0.00    -0.002 A 
ATOM     38  C   UNL d   1     -38.693 -22.350  29.110  0.00  0.00     0.017 A 
ATOM     39  C   UNL d   1     -39.507 -22.891  28.904  0.00  0.00     0.037 A 
ATOM     40  C   UNL d   1     -40.398 -22.609  29.260  0.00  0.00     0.065 A 
ATOM     41  C   UNL d   1     -40.475 -21.785  29.822  0.00  0.00     0.037 A 
ATOM     42  C   UNL d   1     -39.659 -21.244  30.028  0.00  0.00     0.017 A 
BRANCH  40  43
ATOM     43  O   UNL d   1     -41.214 -23.151  29.054  0.00  0.00    -0.361 OA
ATOM     44  H   UNL d   1     -41.703 -23.133  29.436  0.00  0.00     0.217 HD
ENDBRANCH  40  43
ENDBRANCH   9  37
BRANCH   7  45
ATOM     45  O   UNL d   1     -34.878 -18.985  29.798  0.00  0.00    -0.360 OA
ATOM     46  H   UNL d   1     -35.084 -18.534  29.426  0.00  0.00     0.217 HD
ENDBRANCH   7  45
TORSDOF 9
ENDMDL
MODEL 4
REMARK VINA RESULT:   -10.806      1.695      6.493
REMARK INTER + INTRA:          -5.717
REMARK INTER:                 -14.696
REMARK INTRA:                   8.979
REMARK UNBOUND:                 8.879
REMARK  9 active torsions:
REMARK  status: ('A' for Active; 'I' for Inactive)
REMARK    1  A    between atoms: O_3  and  C_17 
REMARK    2  A    between atoms: O_4  and  C_18 
REMARK    3  A    between atoms: O_5  and  C_19 
REMARK    4  A    between atoms: O_7  and  C_32 
REMARK    5  A    between atoms: O_9  and  C_36 
REMARK    6  A    between atoms: O_10  and  C_40 
REMARK    7  A    between atoms: C_11  and  C_13 
REMARK    8  A    between atoms: C_15  and  C_20 
REMARK    9  A    between atoms: C_22  and  C_29 
ROOT
ATOM      1  O   UNL d   1     -37.803 -20.402  31.432  0.00  0.00    -0.308 OA
ATOM      2  O   UNL d   1     -38.922 -20.671  28.587  0.00  0.00    -0.287 OA
ATOM      3  C   UNL d   1     -39.313 -21.069  32.044  0.00  0.00     0.045 A 
ATOM      4  C   UNL d   1     -38.757 -20.785  31.263  0.00  0.00     0.107 A 
ATOM      5  C   UNL d   1     -39.118 -20.871  30.334  0.00  0.00     0.082 A 
ATOM      6  C   UNL d   1     -40.231 -21.438  31.897  0.00  0.00     0.082 A 
ATOM      7  C   UNL d   1     -40.036 -21.241  30.187  0.00  0.00     0.085 A 
ATOM      8  C   UNL d   1     -40.592 -21.524  30.968  0.00  0.00     0.075 A 
ATOM      9  C   UNL d   1     -37.218 -20.105  30.623  0.00  0.00     0.090 A 
ATOM     10  C   UNL d   1     -38.551 -20.581  29.511  0.00  0.00     0.190 A 
ATOM     11  C   UNL d   1     -37.594 -20.195  29.656  0.00  0.00     0.094 A 
ENDROOT
BRANCH   3  12
ATOM     12  C   UNL d   1     -38.952 -20.983  32.972  0.00  0.00     0.014 A 
ATOM     13  C   UNL d   1     -39.101 -20.140  33.491  0.00  0.00     0.029 A 
ATOM     14  C   UNL d   1     -38.739 -20.054  34.419  0.00  0.00    -0.001 A 
ATOM     15  C   UNL d   1     -38.230 -20.810  34.829  0.00  0.00     0.017 A 
ATOM     16  C   UNL d   1     -38.081 -21.653  34.311  0.00  0.00     0.038 A 
ATOM     17  C   UNL d   1     -38.442 -21.739  33.383  0.00  0.00     0.076 A 
BRANCH  14  18
ATOM     18  C   UNL d   1     -38.888 -19.212  34.937  0.00  0.00     0.090 A 
ATOM     19  O   UNL d   1     -38.222 -18.924  35.626  0.00  0.00    -0.309 OA
ATOM     20  C   UNL d   1     -38.371 -18.082  36.144  0.00  0.00     0.095 A 
ATOM     21  C   UNL d   1     -39.185 -17.527  35.974  0.00  0.00     0.081 A 
ATOM     22  C   UNL d   1     -37.668 -17.795  36.858  0.00  0.00     0.075 A 
ATOM     23  C   UNL d   1     -39.851 -17.815  35.285  0.00  0.00     0.190 A 
ATOM     24  C   UNL d   1     -39.353 -16.648  36.505  0.00  0.00     0.085 A 
ATOM     25  O   UNL d   1     -40.665 -17.260  35.115  0.00  0.00    -0.287 OA
ATOM     26  C   UNL d   1     -39.702 -18.657  34.767  0.00  0.00     0.094 A 
ATOM     27  C   UNL d   1     -38.664 -16.342  37.224  0.00  0.00     0.074 A 
ATOM     28  C   UNL d   1     -37.816 -16.919  37.402  0.00  0.00     0.071 A 
BRANCH  24  29
ATOM     29  O   UNL d   1     -40.171 -16.101  36.327  0.00  0.00    -0.360 OA
ATOM     30  H   UNL d   1     -40.507 -16.203  35.815  0.00  0.00     0.217 HD
ENDBRANCH  24  29
BRANCH  28  31
ATOM     31  O   UNL d   1     -37.148 -16.635  38.090  0.00  0.00    -0.361 OA
ATOM     32  H   UNL d   1     -36.797 -16.132  37.992  0.00  0.00     0.217 HD
ENDBRANCH  28  31
ENDBRANCH  14  18
BRANCH  17  33
ATOM     33  O   UNL d   1     -38.294 -22.581  32.864  0.00  0.00    -0.360 OA
ATOM     34  H   UNL d   1     -38.391 -23.131  33.133  0.00  0.00     0.217 HD
ENDBRANCH  17  33
ENDBRANCH   3  12
BRANCH   6  35
ATOM     35  O   UNL d   1     -40.787 -21.721  32.678  0.00  0.00    -0.360 OA
ATOM     36  H   UNL d   1     -41.044 -21.294  33.046  0.00  0.00     0.217 HD
ENDBRANCH   6  35
BRANCH   9  37
ATOM     37  C   UNL d   1     -36.301 -19.736  30.775  0.00  0.00    -0.002 A 
ATOM     38  C   UNL d   1     -35.742 -20.082  31.529  0.00  0.00     0.017 A 
ATOM     39  C   UNL d   1     -34.825 -19.714  31.681  0.00  0.00     0.037 A 
ATOM     40  C   UNL d   1     -34.467 -19.000  31.080  0.00  0.00     0.065 A 
ATOM     41  C   UNL d   1     -35.026 -18.653  30.326  0.00  0.00     0.037 A 
ATOM     42  C   UNL d   1     -35.943 -19.022  30.174  0.00  0.00     0.017 A 
BRANCH  40  43
ATOM     43  O   UNL d   1     -33.550 -18.630  31.231  0.00  0.00    -0.361 OA
ATOM     44  H   UNL d   1     -33.279 -18.691  31.786  0.00  0.00     0.217 HD
ENDBRANCH  40  43
ENDBRANCH   9  37
BRANCH   7  45
ATOM     45  O   UNL d   1     -40.397 -21.327  29.259  0.00  0.00    -0.360 OA
ATOM     46  H   UNL d   1     -40.840 -21.743  29.136  0.00  0.00     0.217 HD
ENDBRANCH   7  45
TORSDOF 9
ENDMDL
MODEL 5
REMARK VINA RESULT:   -10.719      2.211      6.163
REMARK INTER + INTRA:          -5.599
REMARK INTER:                 -14.256
REMARK INTRA:                   8.657
REMARK UNBOUND:                 8.879
REMARK  9 active torsions:
REMARK  status: ('A' for Active; 'I' for Inactive)
REMARK    1  A    between atoms: O_3  and  C_17 
REMARK    2  A    between atoms: O_4  and  C_18 
REMARK    3  A    between atoms: O_5  and  C_19 
REMARK    4  A    between atoms: O_7  and  C_32 
REMARK    5  A    between atoms: O_9  and  C_36 
REMARK    6  A    between atoms: O_10  and  C_40 
REMARK    7  A    between atoms: C_11  and  C_13 
REMARK    8  A    between atoms: C_15  and  C_20 
REMARK    9  A    between atoms: C_22  and  C_29 
ROOT
ATOM      1  O   UNL d   1     -39.741 -18.910  35.645  0.00  0.00    -0.308 OA
ATOM      2  O   UNL d   1     -38.455 -18.370  38.379  0.00  0.00    -0.287 OA
ATOM      3  C   UNL d   1     -41.259 -18.289  36.284  0.00  0.00     0.045 A 
ATOM      4  C   UNL d   1     -40.294 -18.504  36.430  0.00  0.00     0.107 A 
ATOM      5  C   UNL d   1     -39.871 -18.330  37.319  0.00  0.00     0.082 A 
ATOM      6  C   UNL d   1     -41.802 -17.900  37.028  0.00  0.00     0.082 A 
ATOM      7  C   UNL d   1     -40.414 -17.940  38.063  0.00  0.00     0.085 A 
ATOM      8  C   UNL d   1     -41.380 -17.725  37.917  0.00  0.00     0.075 A 
ATOM      9  C   UNL d   1     -38.735 -19.137  35.790  0.00  0.00     0.090 A 
ATOM     10  C   UNL d   1     -38.867 -18.549  37.486  0.00  0.00     0.190 A 
ATOM     11  C   UNL d   1     -38.294 -18.955  36.716  0.00  0.00     0.094 A 
ENDROOT
BRANCH   3  12
ATOM     12  C   UNL d   1     -41.682 -18.464  35.395  0.00  0.00     0.014 A 
ATOM     13  C   UNL d   1     -42.022 -19.378  35.173  0.00  0.00     0.029 A 
ATOM     14  C   UNL d   1     -42.444 -19.552  34.284  0.00  0.00    -0.001 A 
ATOM     15  C   UNL d   1     -42.527 -18.813  33.616  0.00  0.00     0.017 A 
ATOM     16  C   UNL d   1     -42.187 -17.899  33.837  0.00  0.00     0.038 A 
ATOM     17  C   UNL d   1     -41.765 -17.724  34.727  0.00  0.00     0.076 A 
BRANCH  14  18
ATOM     18  C   UNL d   1     -42.784 -20.466  34.063  0.00  0.00     0.090 A 
ATOM     19  O   UNL d   1     -43.611 -20.813  34.506  0.00  0.00    -0.309 OA
ATOM     20  C   UNL d   1     -43.951 -21.727  34.284  0.00  0.00     0.095 A 
ATOM     21  C   UNL d   1     -43.464 -22.294  33.620  0.00  0.00     0.081 A 
ATOM     22  C   UNL d   1     -44.814 -22.075  34.754  0.00  0.00     0.075 A 
ATOM     23  C   UNL d   1     -42.637 -21.948  33.177  0.00  0.00     0.190 A 
ATOM     24  C   UNL d   1     -43.806 -23.249  33.379  0.00  0.00     0.085 A 
ATOM     25  O   UNL d   1     -42.150 -22.515  32.513  0.00  0.00    -0.287 OA
ATOM     26  C   UNL d   1     -42.297 -21.034  33.398  0.00  0.00     0.094 A 
ATOM     27  C   UNL d   1     -44.666 -23.617  33.836  0.00  0.00     0.074 A 
ATOM     28  C   UNL d   1     -45.174 -23.026  34.528  0.00  0.00     0.071 A 
BRANCH  24  29
ATOM     29  O   UNL d   1     -43.311 -23.807  32.713  0.00  0.00    -0.360 OA
ATOM     30  H   UNL d   1     -43.517 -23.850  32.130  0.00  0.00     0.217 HD
ENDBRANCH  24  29
BRANCH  28  31
ATOM     31  O   UNL d   1     -46.001 -23.370  34.973  0.00  0.00    -0.361 OA
ATOM     32  H   UNL d   1     -46.199 -23.946  34.857  0.00  0.00     0.217 HD
ENDBRANCH  28  31
ENDBRANCH  14  18
BRANCH  17  33
ATOM     33  O   UNL d   1     -41.425 -16.810  34.948  0.00  0.00    -0.360 OA
ATOM     34  H   UNL d   1     -40.814 -16.706  34.983  0.00  0.00     0.217 HD
ENDBRANCH  17  33
ENDBRANCH   3  12
BRANCH   6  35
ATOM     35  O   UNL d   1     -42.768 -17.685  36.882  0.00  0.00    -0.360 OA
ATOM     36  H   UNL d   1     -43.200 -18.120  36.974  0.00  0.00     0.217 HD
ENDBRANCH   6  35
BRANCH   9  37
ATOM     37  C   UNL d   1     -38.195 -19.526  35.043  0.00  0.00    -0.002 A 
ATOM     38  C   UNL d   1     -38.356 -20.469  34.750  0.00  0.00     0.017 A 
ATOM     39  C   UNL d   1     -37.817 -20.859  34.003  0.00  0.00     0.037 A 
ATOM     40  C   UNL d   1     -37.117 -20.307  33.551  0.00  0.00     0.065 A 
ATOM     41  C   UNL d   1     -36.956 -19.364  33.844  0.00  0.00     0.037 A 
ATOM     42  C   UNL d   1     -37.496 -18.974  34.591  0.00  0.00     0.017 A 
BRANCH  40  43
ATOM     43  O   UNL d   1     -36.577 -20.696  32.804  0.00  0.00    -0.361 OA
ATOM     44  H   UNL d   1     -36.811 -20.716  32.230  0.00  0.00     0.217 HD
ENDBRANCH  40  43
ENDBRANCH   9  37
BRANCH   7  45
ATOM     45  O   UNL d   1     -39.992 -17.766  38.952  0.00  0.00    -0.360 OA
ATOM     46  H   UNL d   1     -40.241 -17.349  39.338  0.00  0.00     0.217 HD
ENDBRANCH   7  45
TORSDOF 9
ENDMDL
