MODEL 1
REMARK VINA RESULT:    -6.447      0.000      0.000
REMARK INTER + INTRA:          -6.447
REMARK INTER:                  -6.447
REMARK INTRA:                   0.000
REMARK UNBOUND:                 0.000
REMARK  0 active torsions:
REMARK  status: ('A' for Active; 'I' for Inactive)
ROOT
ATOM      1  O   UNL d   1     -38.548 -14.718  41.431  0.00  0.00    -0.265 OA
ATOM      2  O   UNL d   1     -36.089 -15.633  39.169  0.00  0.00    -0.246 OA
ATOM      3  N   UNL d   1     -37.611 -16.460  39.175  0.00  0.00    -0.286 N 
ATOM      4  N   UNL d   1     -39.767 -16.277  40.539  0.00  0.00    -0.338 N 
ATOM      5  N   UNL d   1     -37.318 -15.176  40.300  0.00  0.00    -0.269 N 
ATOM      6  N   UNL d   1     -39.264 -17.212  39.328  0.00  0.00    -0.223 NA
ATOM      7  C   UNL d   1     -38.840 -16.002  40.306  0.00  0.00     0.151 A 
ATOM      8  C   UNL d   1     -38.528 -16.583  39.554  0.00  0.00     0.167 A 
ATOM      9  C   UNL d   1     -38.236 -15.299  40.679  0.00  0.00     0.282 A 
ATOM     10  C   UNL d   1     -37.006 -15.756  39.548  0.00  0.00     0.332 A 
ATOM     11  C   UNL d   1     -40.028 -17.023  39.935  0.00  0.00     0.212 A 
ATOM     12  C   UNL d   1     -37.298 -17.041  38.423  0.00  0.00     0.163 C 
ATOM     13  C   UNL d   1     -40.337 -15.874  41.254  0.00  0.00     0.157 C 
ATOM     14  C   UNL d   1     -36.714 -14.472  40.673  0.00  0.00     0.164 C 
ENDROOT
TORSDOF 0
ENDMDL
MODEL 2
REMARK VINA RESULT:    -6.192      1.563      3.373
REMARK INTER + INTRA:          -6.192
REMARK INTER:                  -6.192
REMARK INTRA:                   0.000
REMARK UNBOUND:                 0.000
REMARK  0 active torsions:
REMARK  status: ('A' for Active; 'I' for Inactive)
ROOT
ATOM      1  O   UNL d   1     -39.764 -17.636  38.486  0.00  0.00    -0.265 OA
ATOM      2  O   UNL d   1     -40.331 -15.840  41.394  0.00  0.00    -0.246 OA
ATOM      3  N   UNL d   1     -38.782 -15.772  40.622  0.00  0.00    -0.286 N 
ATOM      4  N   UNL d   1     -37.752 -16.823  38.530  0.00  0.00    -0.338 N 
ATOM      5  N   UNL d   1     -40.047 -16.738  39.940  0.00  0.00    -0.269 N 
ATOM      6  N   UNL d   1     -37.225 -15.823  39.676  0.00  0.00    -0.223 NA
ATOM      7  C   UNL d   1     -38.498 -16.670  39.168  0.00  0.00     0.151 A 
ATOM      8  C   UNL d   1     -38.171 -16.049  39.880  0.00  0.00     0.167 A 
ATOM      9  C   UNL d   1     -39.437 -17.015  39.198  0.00  0.00     0.282 A 
ATOM     10  C   UNL d   1     -39.720 -16.117  40.652  0.00  0.00     0.332 A 
ATOM     11  C   UNL d   1     -36.966 -16.300  38.842  0.00  0.00     0.212 A 
ATOM     12  C   UNL d   1     -38.454 -15.151  41.334  0.00  0.00     0.163 C 
ATOM     13  C   UNL d   1     -37.785 -17.401  37.715  0.00  0.00     0.157 C 
ATOM     14  C   UNL d   1     -40.986 -17.082  39.970  0.00  0.00     0.164 C 
ENDROOT
TORSDOF 0
ENDMDL
MODEL 3
REMARK VINA RESULT:    -5.905     21.414     22.477
REMARK INTER + INTRA:          -5.905
REMARK INTER:                  -5.905
REMARK INTRA:                   0.000
REMARK UNBOUND:                 0.000
REMARK  0 active torsions:
REMARK  status: ('A' for Active; 'I' for Inactive)
ROOT
ATOM      1  O   UNL d   1     -23.437 -12.275  21.923  0.00  0.00    -0.265 OA
ATOM      2  O   UNL d   1     -26.068 -14.451  21.333  0.00  0.00    -0.246 OA
ATOM      3  N   UNL d   1     -25.136 -14.592  22.786  0.00  0.00    -0.286 N 
ATOM      4  N   UNL d   1     -23.140 -13.346  23.787  0.00  0.00    -0.338 N 
ATOM      5  N   UNL d   1     -24.752 -13.363  21.628  0.00  0.00    -0.269 N 
ATOM      6  N   UNL d   1     -24.051 -14.589  24.251  0.00  0.00    -0.223 NA
ATOM      7  C   UNL d   1     -23.821 -13.504  23.081  0.00  0.00     0.151 A 
ATOM      8  C   UNL d   1     -24.387 -14.276  23.369  0.00  0.00     0.167 A 
ATOM      9  C   UNL d   1     -24.004 -13.047  22.211  0.00  0.00     0.282 A 
ATOM     10  C   UNL d   1     -25.319 -14.135  21.916  0.00  0.00     0.332 A 
ATOM     11  C   UNL d   1     -23.281 -14.015  24.509  0.00  0.00     0.212 A 
ATOM     12  C   UNL d   1     -25.703 -15.364  23.074  0.00  0.00     0.163 C 
ATOM     13  C   UNL d   1     -22.434 -12.637  23.775  0.00  0.00     0.157 C 
ATOM     14  C   UNL d   1     -24.935 -12.906  20.757  0.00  0.00     0.164 C 
ENDROOT
TORSDOF 0
ENDMDL
MODEL 4
REMARK VINA RESULT:    -5.802      1.509      2.479
REMARK INTER + INTRA:          -5.802
REMARK INTER:                  -5.802
REMARK INTRA:                   0.000
REMARK UNBOUND:                 0.000
REMARK  0 active torsions:
REMARK  status: ('A' for Active; 'I' for Inactive)
ROOT
ATOM      1  O   UNL d   1     -39.817 -17.772  38.391  0.00  0.00    -0.265 OA
ATOM      2  O   UNL d   1     -37.068 -15.997  39.528  0.00  0.00    -0.246 OA
ATOM      3  N   UNL d   1     -38.586 -15.864  40.352  0.00  0.00    -0.286 N 
ATOM      4  N   UNL d   1     -40.915 -16.874  40.034  0.00  0.00    -0.338 N 
ATOM      5  N   UNL d   1     -38.443 -16.885  38.959  0.00  0.00    -0.269 N 
ATOM      6  N   UNL d   1     -40.254 -15.850  41.086  0.00  0.00    -0.223 NA
ATOM      7  C   UNL d   1     -39.960 -16.752  39.783  0.00  0.00     0.151 A 
ATOM      8  C   UNL d   1     -39.550 -16.116  40.437  0.00  0.00     0.167 A 
ATOM      9  C   UNL d   1     -39.407 -17.136  39.045  0.00  0.00     0.282 A 
ATOM     10  C   UNL d   1     -38.032 -16.249  39.613  0.00  0.00     0.332 A 
ATOM     11  C   UNL d   1     -41.096 -16.317  40.838  0.00  0.00     0.212 A 
ATOM     12  C   UNL d   1     -38.176 -15.229  41.005  0.00  0.00     0.163 C 
ATOM     13  C   UNL d   1     -41.577 -17.454  39.561  0.00  0.00     0.157 C 
ATOM     14  C   UNL d   1     -37.889 -17.269  38.221  0.00  0.00     0.164 C 
ENDROOT
TORSDOF 0
ENDMDL
MODEL 5
REMARK VINA RESULT:    -5.788     21.397     22.728
REMARK INTER + INTRA:          -5.788
REMARK INTER:                  -5.788
REMARK INTRA:                   0.000
REMARK UNBOUND:                 0.000
REMARK  0 active torsions:
REMARK  status: ('A' for Active; 'I' for Inactive)
ROOT
ATOM      1  O   UNL d   1     -23.529 -12.216  21.616  0.00  0.00    -0.265 OA
ATOM      2  O   UNL d   1     -24.061 -14.539  24.131  0.00  0.00    -0.246 OA
ATOM      3  N   UNL d   1     -25.096 -14.513  22.742  0.00  0.00    -0.286 N 
ATOM      4  N   UNL d   1     -25.236 -13.104  20.612  0.00  0.00    -0.338 N 
ATOM      5  N   UNL d   1     -23.795 -13.377  22.873  0.00  0.00    -0.269 N 
ATOM      6  N   UNL d   1     -26.077 -14.337  21.217  0.00  0.00    -0.223 NA
ATOM      7  C   UNL d   1     -24.830 -13.352  21.485  0.00  0.00     0.151 A 
ATOM      8  C   UNL d   1     -25.353 -14.117  21.861  0.00  0.00     0.167 A 
ATOM      9  C   UNL d   1     -24.051 -12.982  21.991  0.00  0.00     0.282 A 
ATOM     10  C   UNL d   1     -24.317 -14.143  23.249  0.00  0.00     0.332 A 
ATOM     11  C   UNL d   1     -26.006 -13.712  20.446  0.00  0.00     0.212 A 
ATOM     12  C   UNL d   1     -25.619 -15.278  23.118  0.00  0.00     0.163 C 
ATOM     13  C   UNL d   1     -24.926 -12.372  20.006  0.00  0.00     0.157 C 
ATOM     14  C   UNL d   1     -23.016 -13.007  23.380  0.00  0.00     0.164 C 
ENDROOT
TORSDOF 0
ENDMDL
