MODEL 1
REMARK VINA RESULT:    -6.826      0.000      0.000
REMARK INTER + INTRA:          -3.680
REMARK INTER:                  -8.995
REMARK INTRA:                   5.315
REMARK UNBOUND:                 5.141
REMARK  6 active torsions:
REMARK  status: ('A' for Active; 'I' for Inactive)
REMARK    1  A    between atoms: O_2  and  C_15 
REMARK    2  A    between atoms: O_3  and  C_17 
REMARK    3  A    between atoms: O_4  and  C_11 
REMARK    4  A    between atoms: O_6  and  C_22 
REMARK    5  A    between atoms: O_7  and  C_20 
REMARK    6  A    between atoms: C_10  and  C_13 
ROOT
ATOM      1  O   UNL d   1     -11.771   7.686  -2.116  0.00  0.00    -0.309 OA
ATOM      2  O   UNL d   1     -10.684   5.287  -0.540  0.00  0.00    -0.287 OA
ATOM      3  C   UNL d   1     -10.794   6.204  -2.050  0.00  0.00     0.084 A 
ATOM      4  C   UNL d   1     -11.146   6.984  -2.566  0.00  0.00     0.096 A 
ATOM      5  C   UNL d   1     -12.032   7.573  -1.114  0.00  0.00     0.090 A 
ATOM      6  C   UNL d   1     -10.196   5.538  -2.495  0.00  0.00     0.119 A 
ATOM      7  C   UNL d   1     -11.042   6.071  -1.047  0.00  0.00     0.190 A 
ATOM      8  C   UNL d   1     -10.900   7.099  -3.528  0.00  0.00     0.078 A 
ATOM      9  C   UNL d   1      -9.949   5.653  -3.458  0.00  0.00     0.136 A 
ATOM     10  C   UNL d   1     -11.665   6.760  -0.575  0.00  0.00     0.094 A 
ATOM     11  C   UNL d   1     -10.301   6.434  -3.974  0.00  0.00     0.107 A 
ENDROOT
BRANCH   5  12
ATOM     12  C   UNL d   1     -12.630   8.241  -0.671  0.00  0.00     0.001 A 
ATOM     13  C   UNL d   1     -12.541   8.419   0.309  0.00  0.00     0.053 A 
ATOM     14  C   UNL d   1     -13.139   9.087   0.753  0.00  0.00     0.099 A 
ATOM     15  C   UNL d   1     -13.827   9.575   0.215  0.00  0.00     0.101 A 
ATOM     16  C   UNL d   1     -13.916   9.397  -0.765  0.00  0.00     0.040 A 
ATOM     17  C   UNL d   1     -13.318   8.729  -1.207  0.00  0.00     0.017 A 
BRANCH  14  18
ATOM     18  O   UNL d   1     -13.051   9.266   1.732  0.00  0.00    -0.358 OA
ATOM     19  H   UNL d   1     -13.380   8.935   2.139  0.00  0.00     0.217 HD
ENDBRANCH  14  18
BRANCH  15  20
ATOM     20  O   UNL d   1     -14.426  10.243   0.658  0.00  0.00    -0.353 OA
ATOM     21  C   UNL d   1     -15.217  10.608   0.168  0.00  0.00     0.210 C 
ENDBRANCH  15  20
ENDBRANCH   5  12
BRANCH   6  22
ATOM     22  O   UNL d   1      -9.844   4.758  -1.979  0.00  0.00    -0.357 OA
ATOM     23  H   UNL d   1      -9.543   4.302  -2.273  0.00  0.00     0.218 HD
ENDBRANCH   6  22
BRANCH  11  24
ATOM     24  O   UNL d   1     -10.055   6.548  -4.937  0.00  0.00    -0.353 OA
ATOM     25  C   UNL d   1     -10.370   7.353  -5.441  0.00  0.00     0.210 C 
ENDBRANCH  11  24
BRANCH   9  26
ATOM     26  O   UNL d   1      -9.351   4.987  -3.903  0.00  0.00    -0.351 OA
ATOM     27  C   UNL d   1      -9.702   4.083  -4.145  0.00  0.00     0.210 C 
ENDBRANCH   9  26
TORSDOF 6
ENDMDL
MODEL 2
REMARK VINA RESULT:    -6.796      1.588      5.818
REMARK INTER + INTRA:          -3.641
REMARK INTER:                  -8.707
REMARK INTRA:                   5.067
REMARK UNBOUND:                 5.141
REMARK  6 active torsions:
REMARK  status: ('A' for Active; 'I' for Inactive)
REMARK    1  A    between atoms: O_2  and  C_15 
REMARK    2  A    between atoms: O_3  and  C_17 
REMARK    3  A    between atoms: O_4  and  C_11 
REMARK    4  A    between atoms: O_6  and  C_22 
REMARK    5  A    between atoms: O_7  and  C_20 
REMARK    6  A    between atoms: C_10  and  C_13 
ROOT
ATOM      1  O   UNL d   1     -10.741   6.528  -2.865  0.00  0.00    -0.309 OA
ATOM      2  O   UNL d   1     -10.727   6.153   0.181  0.00  0.00    -0.287 OA
ATOM      3  C   UNL d   1     -11.096   7.145  -1.238  0.00  0.00     0.084 A 
ATOM      4  C   UNL d   1     -11.102   7.270  -2.230  0.00  0.00     0.096 A 
ATOM      5  C   UNL d   1     -10.368   5.643  -2.462  0.00  0.00     0.090 A 
ATOM      6  C   UNL d   1     -11.447   7.866  -0.640  0.00  0.00     0.119 A 
ATOM      7  C   UNL d   1     -10.728   6.268  -0.813  0.00  0.00     0.190 A 
ATOM      8  C   UNL d   1     -11.459   8.117  -2.624  0.00  0.00     0.078 A 
ATOM      9  C   UNL d   1     -11.803   8.713  -1.035  0.00  0.00     0.136 A 
ATOM     10  C   UNL d   1     -10.361   5.512  -1.428  0.00  0.00     0.094 A 
ATOM     11  C   UNL d   1     -11.809   8.838  -2.027  0.00  0.00     0.107 A 
ENDROOT
BRANCH   5  12
ATOM     12  C   UNL d   1     -10.018   4.924  -3.062  0.00  0.00     0.001 A 
ATOM     13  C   UNL d   1     -10.518   4.063  -3.154  0.00  0.00     0.053 A 
ATOM     14  C   UNL d   1     -10.169   3.343  -3.754  0.00  0.00     0.099 A 
ATOM     15  C   UNL d   1      -9.320   3.485  -4.263  0.00  0.00     0.101 A 
ATOM     16  C   UNL d   1      -8.820   4.347  -4.171  0.00  0.00     0.040 A 
ATOM     17  C   UNL d   1      -9.169   5.066  -3.571  0.00  0.00     0.017 A 
BRANCH  14  18
ATOM     18  O   UNL d   1     -10.668   2.482  -3.846  0.00  0.00    -0.358 OA
ATOM     19  H   UNL d   1     -10.631   2.052  -3.401  0.00  0.00     0.217 HD
ENDBRANCH  14  18
BRANCH  15  20
ATOM     20  O   UNL d   1      -8.970   2.766  -4.863  0.00  0.00    -0.353 OA
ATOM     21  C   UNL d   1      -8.011   2.772  -5.144  0.00  0.00     0.210 C 
ENDBRANCH  15  20
ENDBRANCH   5  12
BRANCH   6  22
ATOM     22  O   UNL d   1     -11.441   7.740   0.352  0.00  0.00    -0.357 OA
ATOM     23  H   UNL d   1     -10.907   7.777   0.666  0.00  0.00     0.218 HD
ENDBRANCH   6  22
BRANCH  11  24
ATOM     24  O   UNL d   1     -12.166   9.685  -2.421  0.00  0.00    -0.353 OA
ATOM     25  C   UNL d   1     -11.989   9.903  -3.381  0.00  0.00     0.210 C 
ENDBRANCH  11  24
BRANCH   9  26
ATOM     26  O   UNL d   1     -12.154   9.434  -0.437  0.00  0.00    -0.351 OA
ATOM     27  C   UNL d   1     -13.053   9.337  -0.011  0.00  0.00     0.210 C 
ENDBRANCH   9  26
TORSDOF 6
ENDMDL
MODEL 3
REMARK VINA RESULT:    -6.742     23.950     25.672
REMARK INTER + INTRA:          -3.571
REMARK INTER:                  -8.714
REMARK INTRA:                   5.143
REMARK UNBOUND:                 5.141
REMARK  6 active torsions:
REMARK  status: ('A' for Active; 'I' for Inactive)
REMARK    1  A    between atoms: O_2  and  C_15 
REMARK    2  A    between atoms: O_3  and  C_17 
REMARK    3  A    between atoms: O_4  and  C_11 
REMARK    4  A    between atoms: O_6  and  C_22 
REMARK    5  A    between atoms: O_7  and  C_20 
REMARK    6  A    between atoms: C_10  and  C_13 
ROOT
ATOM      1  O   UNL d   1       8.238  -5.725   5.985  0.00  0.00    -0.309 OA
ATOM      2  O   UNL d   1      10.392  -7.648   7.023  0.00  0.00    -0.287 OA
ATOM      3  C   UNL d   1       8.959  -7.347   6.030  0.00  0.00     0.084 A 
ATOM      4  C   UNL d   1       8.255  -6.724   5.689  0.00  0.00     0.096 A 
ATOM      5  C   UNL d   1       8.963  -5.371   6.644  0.00  0.00     0.090 A 
ATOM      6  C   UNL d   1       8.963  -8.304   5.738  0.00  0.00     0.119 A 
ATOM      7  C   UNL d   1       9.693  -7.015   6.689  0.00  0.00     0.190 A 
ATOM      8  C   UNL d   1       7.556  -7.056   5.057  0.00  0.00     0.078 A 
ATOM      9  C   UNL d   1       8.264  -8.636   5.105  0.00  0.00     0.136 A 
ATOM     10  C   UNL d   1       9.696  -6.021   6.998  0.00  0.00     0.094 A 
ATOM     11  C   UNL d   1       7.560  -8.012   4.764  0.00  0.00     0.107 A 
ENDROOT
BRANCH   5  12
ATOM     12  C   UNL d   1       8.956  -4.414   6.934  0.00  0.00     0.001 A 
ATOM     13  C   UNL d   1       9.782  -3.859   6.844  0.00  0.00     0.053 A 
ATOM     14  C   UNL d   1       9.776  -2.901   7.134  0.00  0.00     0.099 A 
ATOM     15  C   UNL d   1       8.942  -2.500   7.514  0.00  0.00     0.101 A 
ATOM     16  C   UNL d   1       8.116  -3.056   7.604  0.00  0.00     0.040 A 
ATOM     17  C   UNL d   1       8.123  -4.013   7.314  0.00  0.00     0.017 A 
BRANCH  14  18
ATOM     18  O   UNL d   1      10.602  -2.345   7.044  0.00  0.00    -0.358 OA
ATOM     19  H   UNL d   1      10.912  -2.166   7.549  0.00  0.00     0.217 HD
ENDBRANCH  14  18
BRANCH  15  20
ATOM     20  O   UNL d   1       8.935  -1.544   7.804  0.00  0.00    -0.353 OA
ATOM     21  C   UNL d   1       8.089  -1.127   8.135  0.00  0.00     0.210 C 
ENDBRANCH  15  20
ENDBRANCH   5  12
BRANCH   6  22
ATOM     22  O   UNL d   1       9.666  -8.928   6.078  0.00  0.00    -0.357 OA
ATOM     23  H   UNL d   1       9.521  -9.515   6.213  0.00  0.00     0.218 HD
ENDBRANCH   6  22
BRANCH  11  24
ATOM     24  O   UNL d   1       6.861  -8.345   4.131  0.00  0.00    -0.353 OA
ATOM     25  C   UNL d   1       6.214  -7.703   3.719  0.00  0.00     0.210 C 
ENDBRANCH  11  24
BRANCH   9  26
ATOM     26  O   UNL d   1       8.268  -9.592   4.813  0.00  0.00    -0.351 OA
ATOM     27  C   UNL d   1       7.951 -10.307   5.436  0.00  0.00     0.210 C 
ENDBRANCH   9  26
TORSDOF 6
ENDMDL
MODEL 4
REMARK VINA RESULT:    -6.706     26.067     27.988
REMARK INTER + INTRA:          -3.525
REMARK INTER:                  -8.584
REMARK INTRA:                   5.059
REMARK UNBOUND:                 5.141
REMARK  6 active torsions:
REMARK  status: ('A' for Active; 'I' for Inactive)
REMARK    1  A    between atoms: O_2  and  C_15 
REMARK    2  A    between atoms: O_3  and  C_17 
REMARK    3  A    between atoms: O_4  and  C_11 
REMARK    4  A    between atoms: O_6  and  C_22 
REMARK    5  A    between atoms: O_7  and  C_20 
REMARK    6  A    between atoms: C_10  and  C_13 
ROOT
ATOM      1  O   UNL d   1       2.095  -6.863  17.806  0.00  0.00    -0.309 OA
ATOM      2  O   UNL d   1       0.556  -4.848  19.535  0.00  0.00    -0.287 OA
ATOM      3  C   UNL d   1       1.550  -6.306  19.402  0.00  0.00     0.084 A 
ATOM      4  C   UNL d   1       2.052  -6.964  18.842  0.00  0.00     0.096 A 
ATOM      5  C   UNL d   1       1.607  -6.064  17.347  0.00  0.00     0.090 A 
ATOM      6  C   UNL d   1       1.518  -6.416  20.395  0.00  0.00     0.119 A 
ATOM      7  C   UNL d   1       1.055  -5.500  18.965  0.00  0.00     0.190 A 
ATOM      8  C   UNL d   1       2.523  -7.733  19.275  0.00  0.00     0.078 A 
ATOM      9  C   UNL d   1       1.988  -7.185  20.828  0.00  0.00     0.136 A 
ATOM     10  C   UNL d   1       1.084  -5.378  17.931  0.00  0.00     0.094 A 
ATOM     11  C   UNL d   1       2.491  -7.843  20.268  0.00  0.00     0.107 A 
ENDROOT
BRANCH   5  12
ATOM     12  C   UNL d   1       1.641  -5.957  16.354  0.00  0.00     0.001 A 
ATOM     13  C   UNL d   1       2.189  -5.225  15.949  0.00  0.00     0.053 A 
ATOM     14  C   UNL d   1       2.224  -5.117  14.955  0.00  0.00     0.099 A 
ATOM     15  C   UNL d   1       1.710  -5.741  14.367  0.00  0.00     0.101 A 
ATOM     16  C   UNL d   1       1.162  -6.474  14.772  0.00  0.00     0.040 A 
ATOM     17  C   UNL d   1       1.128  -6.581  15.765  0.00  0.00     0.017 A 
BRANCH  14  18
ATOM     18  O   UNL d   1       2.771  -4.385  14.549  0.00  0.00    -0.358 OA
ATOM     19  H   UNL d   1       2.838  -3.846  14.847  0.00  0.00     0.217 HD
ENDBRANCH  14  18
BRANCH  15  20
ATOM     20  O   UNL d   1       1.744  -5.634  13.373  0.00  0.00    -0.353 OA
ATOM     21  C   UNL d   1       1.027  -6.032  12.802  0.00  0.00     0.210 C 
ENDBRANCH  15  20
ENDBRANCH   5  12
BRANCH   6  22
ATOM     22  O   UNL d   1       1.015  -5.757  20.955  0.00  0.00    -0.357 OA
ATOM     23  H   UNL d   1       0.416  -5.851  21.082  0.00  0.00     0.218 HD
ENDBRANCH   6  22
BRANCH  11  24
ATOM     24  O   UNL d   1       2.961  -8.612  20.701  0.00  0.00    -0.353 OA
ATOM     25  C   UNL d   1       3.409  -9.306  20.137  0.00  0.00     0.210 C 
ENDBRANCH  11  24
BRANCH   9  26
ATOM     26  O   UNL d   1       1.956  -7.295  21.822  0.00  0.00    -0.351 OA
ATOM     27  C   UNL d   1       2.552  -6.744  22.405  0.00  0.00     0.210 C 
ENDBRANCH   9  26
TORSDOF 6
ENDMDL
MODEL 5
REMARK VINA RESULT:    -6.647     23.891     26.669
REMARK INTER + INTRA:          -3.448
REMARK INTER:                  -8.629
REMARK INTRA:                   5.181
REMARK UNBOUND:                 5.141
REMARK  6 active torsions:
REMARK  status: ('A' for Active; 'I' for Inactive)
REMARK    1  A    between atoms: O_2  and  C_15 
REMARK    2  A    between atoms: O_3  and  C_17 
REMARK    3  A    between atoms: O_4  and  C_11 
REMARK    4  A    between atoms: O_6  and  C_22 
REMARK    5  A    between atoms: O_7  and  C_20 
REMARK    6  A    between atoms: C_10  and  C_13 
ROOT
ATOM      1  O   UNL d   1       8.140  -7.188   5.644  0.00  0.00    -0.309 OA
ATOM      2  O   UNL d   1      10.738  -7.215   7.277  0.00  0.00    -0.287 OA
ATOM      3  C   UNL d   1       9.323  -6.346   6.667  0.00  0.00     0.084 A 
ATOM      4  C   UNL d   1       8.476  -6.333   6.136  0.00  0.00     0.096 A 
ATOM      5  C   UNL d   1       8.695  -8.067   5.706  0.00  0.00     0.090 A 
ATOM      6  C   UNL d   1       9.633  -5.517   7.134  0.00  0.00     0.119 A 
ATOM      7  C   UNL d   1       9.893  -7.214   6.743  0.00  0.00     0.190 A 
ATOM      8  C   UNL d   1       7.939  -5.492   6.072  0.00  0.00     0.078 A 
ATOM      9  C   UNL d   1       9.096  -4.677   7.070  0.00  0.00     0.136 A 
ATOM     10  C   UNL d   1       9.577  -8.080   6.260  0.00  0.00     0.094 A 
ATOM     11  C   UNL d   1       8.248  -4.664   6.539  0.00  0.00     0.107 A 
ENDROOT
BRANCH   5  12
ATOM     12  C   UNL d   1       8.382  -8.893   5.238  0.00  0.00     0.001 A 
ATOM     13  C   UNL d   1       8.273  -9.746   5.749  0.00  0.00     0.053 A 
ATOM     14  C   UNL d   1       7.960 -10.573   5.281  0.00  0.00     0.099 A 
ATOM     15  C   UNL d   1       7.757 -10.547   4.302  0.00  0.00     0.101 A 
ATOM     16  C   UNL d   1       7.866  -9.694   3.792  0.00  0.00     0.040 A 
ATOM     17  C   UNL d   1       8.178  -8.868   4.260  0.00  0.00     0.017 A 
BRANCH  14  18
ATOM     18  O   UNL d   1       7.851 -11.427   5.791  0.00  0.00    -0.358 OA
ATOM     19  H   UNL d   1       8.344 -11.781   5.912  0.00  0.00     0.217 HD
ENDBRANCH  14  18
BRANCH  15  20
ATOM     20  O   UNL d   1       7.444 -11.373   3.834  0.00  0.00    -0.353 OA
ATOM     21  C   UNL d   1       7.531 -11.449   2.841  0.00  0.00     0.210 C 
ENDBRANCH  15  20
ENDBRANCH   5  12
BRANCH   6  22
ATOM     22  O   UNL d   1      10.480  -5.530   7.666  0.00  0.00    -0.357 OA
ATOM     23  H   UNL d   1      10.917  -5.103   7.562  0.00  0.00     0.218 HD
ENDBRANCH   6  22
BRANCH  11  24
ATOM     24  O   UNL d   1       7.711  -3.823   6.475  0.00  0.00    -0.353 OA
ATOM     25  C   UNL d   1       6.927  -3.777   5.856  0.00  0.00     0.210 C 
ENDBRANCH  11  24
BRANCH   9  26
ATOM     26  O   UNL d   1       9.405  -3.848   7.537  0.00  0.00    -0.351 OA
ATOM     27  C   UNL d   1      10.142  -3.298   7.144  0.00  0.00     0.210 C 
ENDBRANCH   9  26
TORSDOF 6
ENDMDL
