MODEL 1
REMARK VINA RESULT:    -8.447      0.000      0.000
REMARK INTER + INTRA:          -3.572
REMARK INTER:                 -13.591
REMARK INTRA:                  10.019
REMARK UNBOUND:                 9.812
REMARK  14 active torsions:
REMARK  status: ('A' for Active; 'I' for Inactive)
REMARK    1  A    between atoms: C_15  and  O_1 
REMARK    2  A    between atoms: C_18  and  O_1 
REMARK    3  A    between atoms: C_16  and  O_4 
REMARK    4  A    between atoms: C_20  and  O_5 
REMARK    5  A    between atoms: O_5  and  C_27 
REMARK    6  A    between atoms: C_17  and  O_6 
REMARK    7  A    between atoms: C_19  and  O_7 
REMARK    8  A    between atoms: C_22  and  O_8 
REMARK    9  A    between atoms: C_23  and  O_9 
REMARK   10  A    between atoms: O_10  and  C_25 
REMARK   11  A    between atoms: O_12  and  C_31 
REMARK   12  A    between atoms: O_14  and  C_41 
REMARK   13  A    between atoms: C_21  and  C_25 
REMARK   14  A    between atoms: C_34  and  C_36 
ROOT
ATOM      1  O   UNL d   1       0.574  -6.611  19.445  0.00  0.00    -0.348 OA
ATOM      2  C   UNL d   1       1.211  -5.810  18.047  0.00  0.00     0.211 A 
ATOM      3  C   UNL d   1       0.529  -5.087  18.151  0.00  0.00     0.183 A 
ATOM      4  C   UNL d   1      -0.130  -5.125  18.901  0.00  0.00     0.180 A 
ATOM      5  C   UNL d   1       1.234  -6.573  18.694  0.00  0.00     0.298 A 
ATOM      6  C   UNL d   1      -0.108  -5.887  19.548  0.00  0.00     0.179 A 
ENDROOT
BRANCH   5   7
ATOM      7  O   UNL d   1       1.916  -7.296  18.590  0.00  0.00    -0.318 OA
BRANCH   7   8
ATOM      8  C   UNL d   1       2.262  -7.777  19.396  0.00  0.00     0.077 A 
ATOM      9  C   UNL d   1       2.896  -7.291  20.065  0.00  0.00     0.075 A 
ATOM     10  C   UNL d   1       3.250  -7.801  20.901  0.00  0.00     0.095 A 
ATOM     11  O   UNL d   1       3.859  -7.328  21.538  0.00  0.00    -0.309 OA
ATOM     12  C   UNL d   1       2.989  -8.752  21.071  0.00  0.00     0.081 A 
ATOM     13  C   UNL d   1       4.207  -7.805  22.345  0.00  0.00     0.090 A 
ATOM     14  C   UNL d   1       3.946  -8.755  22.515  0.00  0.00     0.094 A 
ATOM     15  C   UNL d   1       3.337  -9.229  21.879  0.00  0.00     0.190 A 
ATOM     16  O   UNL d   1       3.076 -10.179  22.048  0.00  0.00    -0.287 OA
ATOM     17  C   UNL d   1       2.356  -9.257  20.417  0.00  0.00     0.085 A 
ATOM     18  C   UNL d   1       1.990  -8.767  19.574  0.00  0.00     0.074 A 
BRANCH  13  19
ATOM     19  C   UNL d   1       4.816  -7.333  22.982  0.00  0.00    -0.002 A 
ATOM     20  C   UNL d   1       4.561  -7.243  23.945  0.00  0.00     0.017 A 
ATOM     21  C   UNL d   1       5.170  -6.771  24.581  0.00  0.00     0.037 A 
ATOM     22  C   UNL d   1       6.034  -6.387  24.256  0.00  0.00     0.065 A 
ATOM     23  C   UNL d   1       6.289  -6.476  23.293  0.00  0.00     0.037 A 
ATOM     24  C   UNL d   1       5.680  -6.949  22.656  0.00  0.00     0.017 A 
BRANCH  22  25
ATOM     25  O   UNL d   1       6.643  -5.914  24.893  0.00  0.00    -0.361 OA
ATOM     26  H   UNL d   1       6.653  -5.294  24.910  0.00  0.00     0.217 HD
ENDBRANCH  22  25
ENDBRANCH  13  19
BRANCH  17  27
ATOM     27  O   UNL d   1       2.102 -10.207  20.597  0.00  0.00    -0.360 OA
ATOM     28  H   UNL d   1       2.539 -10.647  20.615  0.00  0.00     0.217 HD
ENDBRANCH  17  27
ENDBRANCH   7   8
ENDBRANCH   5   7
BRANCH   2  29
ATOM     29  O   UNL d   1       1.871  -5.772  17.296  0.00  0.00    -0.346 OA
BRANCH  29  30
ATOM     30  C   UNL d   1       1.595  -6.043  16.374  0.00  0.00     0.292 A 
ATOM     31  O   UNL d   1       0.916  -6.767  16.248  0.00  0.00    -0.351 OA
ATOM     32  C   UNL d   1       0.640  -7.038  15.326  0.00  0.00     0.152 A 
ATOM     33  C   UNL d   1       1.043  -6.586  14.530  0.00  0.00     0.178 A 
ATOM     34  C   UNL d   1      -0.038  -7.762  15.199  0.00  0.00     0.042 C 
ATOM     35  C   UNL d   1       1.721  -5.862  14.656  0.00  0.00     0.183 A 
ATOM     36  C   UNL d   1       1.997  -5.591  15.578  0.00  0.00     0.204 A 
BRANCH  33  37
ATOM     37  O   UNL d   1       0.767  -6.857  13.608  0.00  0.00    -0.390 OA
ATOM     38  H   UNL d   1       1.150  -6.763  13.129  0.00  0.00     0.210 HD
ENDBRANCH  33  37
BRANCH  35  39
ATOM     39  O   UNL d   1       2.124  -5.410  13.861  0.00  0.00    -0.390 OA
ATOM     40  H   UNL d   1       1.920  -5.545  13.291  0.00  0.00     0.210 HD
ENDBRANCH  35  39
BRANCH  36  41
ATOM     41  O   UNL d   1       2.676  -4.867  15.705  0.00  0.00    -0.388 OA
ATOM     42  H   UNL d   1       2.495  -4.298  15.869  0.00  0.00     0.210 HD
ENDBRANCH  36  41
ENDBRANCH  29  30
ENDBRANCH   2  29
BRANCH   6  43
ATOM     43  C   UNL d   1      -0.767  -5.925  20.299  0.00  0.00     0.198 C 
BRANCH  43  44
ATOM     44  O   UNL d   1      -0.485  -6.268  21.195  0.00  0.00    -0.398 OA
ATOM     45  H   UNL d   1       0.013  -6.029  21.476  0.00  0.00     0.209 HD
ENDBRANCH  43  44
ENDBRANCH   6  43
BRANCH   3  46
ATOM     46  O   UNL d   1       0.507  -4.324  17.504  0.00  0.00    -0.390 OA
ATOM     47  H   UNL d   1       1.030  -4.026  17.358  0.00  0.00     0.210 HD
ENDBRANCH   3  46
BRANCH   4  48
ATOM     48  O   UNL d   1      -0.812  -4.401  19.005  0.00  0.00    -0.390 OA
ATOM     49  H   UNL d   1      -0.695  -3.915  19.371  0.00  0.00     0.210 HD
ENDBRANCH   4  48
TORSDOF 14
ENDMDL
MODEL 2
REMARK VINA RESULT:    -8.172     13.959     15.974
REMARK INTER + INTRA:          -3.136
REMARK INTER:                 -13.393
REMARK INTRA:                  10.257
REMARK UNBOUND:                 9.812
REMARK  14 active torsions:
REMARK  status: ('A' for Active; 'I' for Inactive)
REMARK    1  A    between atoms: C_15  and  O_1 
REMARK    2  A    between atoms: C_18  and  O_1 
REMARK    3  A    between atoms: C_16  and  O_4 
REMARK    4  A    between atoms: C_20  and  O_5 
REMARK    5  A    between atoms: O_5  and  C_27 
REMARK    6  A    between atoms: C_17  and  O_6 
REMARK    7  A    between atoms: C_19  and  O_7 
REMARK    8  A    between atoms: C_22  and  O_8 
REMARK    9  A    between atoms: C_23  and  O_9 
REMARK   10  A    between atoms: O_10  and  C_25 
REMARK   11  A    between atoms: O_12  and  C_31 
REMARK   12  A    between atoms: O_14  and  C_41 
REMARK   13  A    between atoms: C_21  and  C_25 
REMARK   14  A    between atoms: C_34  and  C_36 
ROOT
ATOM      1  O   UNL d   1       7.713  -8.519   3.780  0.00  0.00    -0.348 OA
ATOM      2  C   UNL d   1       8.038 -10.164   4.213  0.00  0.00     0.211 A 
ATOM      3  C   UNL d   1       8.134 -10.399   3.245  0.00  0.00     0.183 A 
ATOM      4  C   UNL d   1       8.019  -9.694   2.546  0.00  0.00     0.180 A 
ATOM      5  C   UNL d   1       7.827  -9.224   4.480  0.00  0.00     0.298 A 
ATOM      6  C   UNL d   1       7.809  -8.754   2.813  0.00  0.00     0.179 A 
ENDROOT
BRANCH   5   7
ATOM      7  O   UNL d   1       7.731  -8.988   5.447  0.00  0.00    -0.318 OA
BRANCH   7   8
ATOM      8  C   UNL d   1       8.236  -8.213   5.826  0.00  0.00     0.077 A 
ATOM      9  C   UNL d   1       7.771  -7.286   5.934  0.00  0.00     0.075 A 
ATOM     10  C   UNL d   1       8.307  -6.486   6.329  0.00  0.00     0.095 A 
ATOM     11  O   UNL d   1       7.854  -5.600   6.431  0.00  0.00    -0.309 OA
ATOM     12  C   UNL d   1       9.262  -6.593   6.606  0.00  0.00     0.081 A 
ATOM     13  C   UNL d   1       8.355  -4.822   6.809  0.00  0.00     0.090 A 
ATOM     14  C   UNL d   1       9.310  -4.929   7.085  0.00  0.00     0.094 A 
ATOM     15  C   UNL d   1       9.763  -5.815   6.984  0.00  0.00     0.190 A 
ATOM     16  O   UNL d   1      10.718  -5.922   7.261  0.00  0.00    -0.287 OA
ATOM     17  C   UNL d   1       9.747  -7.510   6.507  0.00  0.00     0.085 A 
ATOM     18  C   UNL d   1       9.231  -8.324   6.114  0.00  0.00     0.074 A 
BRANCH  13  19
ATOM     19  C   UNL d   1       7.902  -3.936   6.910  0.00  0.00    -0.002 A 
ATOM     20  C   UNL d   1       7.345  -3.570   6.164  0.00  0.00     0.017 A 
ATOM     21  C   UNL d   1       6.893  -2.685   6.266  0.00  0.00     0.037 A 
ATOM     22  C   UNL d   1       6.997  -2.164   7.113  0.00  0.00     0.065 A 
ATOM     23  C   UNL d   1       7.554  -2.529   7.859  0.00  0.00     0.037 A 
ATOM     24  C   UNL d   1       8.007  -3.415   7.758  0.00  0.00     0.017 A 
BRANCH  22  25
ATOM     25  O   UNL d   1       6.544  -1.278   7.215  0.00  0.00    -0.361 OA
ATOM     26  H   UNL d   1       6.072  -1.215   7.612  0.00  0.00     0.217 HD
ENDBRANCH  22  25
ENDBRANCH  13  19
BRANCH  17  27
ATOM     27  O   UNL d   1      10.702  -7.605   6.787  0.00  0.00    -0.360 OA
ATOM     28  H   UNL d   1      10.995  -7.130   7.058  0.00  0.00     0.217 HD
ENDBRANCH  17  27
ENDBRANCH   7   8
ENDBRANCH   5   7
BRANCH   2  29
ATOM     29  O   UNL d   1       8.152 -10.869   4.912  0.00  0.00    -0.346 OA
BRANCH  29  30
ATOM     30  C   UNL d   1       7.352 -11.346   5.277  0.00  0.00     0.292 A 
ATOM     31  O   UNL d   1       6.545 -11.480   4.703  0.00  0.00    -0.351 OA
ATOM     32  C   UNL d   1       5.745 -11.956   5.068  0.00  0.00     0.152 A 
ATOM     33  C   UNL d   1       5.753 -12.299   6.007  0.00  0.00     0.178 A 
ATOM     34  C   UNL d   1       4.938 -12.090   4.493  0.00  0.00     0.042 C 
ATOM     35  C   UNL d   1       6.560 -12.165   6.582  0.00  0.00     0.183 A 
ATOM     36  C   UNL d   1       7.360 -11.688   6.217  0.00  0.00     0.204 A 
BRANCH  33  37
ATOM     37  O   UNL d   1       4.953 -12.775   6.372  0.00  0.00    -0.390 OA
ATOM     38  H   UNL d   1       4.811 -12.728   6.974  0.00  0.00     0.210 HD
ENDBRANCH  33  37
BRANCH  35  39
ATOM     39  O   UNL d   1       6.568 -12.507   7.521  0.00  0.00    -0.390 OA
ATOM     40  H   UNL d   1       7.065 -12.416   7.880  0.00  0.00     0.210 HD
ENDBRANCH  35  39
BRANCH  36  41
ATOM     41  O   UNL d   1       8.167 -11.554   6.791  0.00  0.00    -0.388 OA
ATOM     42  H   UNL d   1       8.604 -11.147   6.623  0.00  0.00     0.210 HD
ENDBRANCH  36  41
ENDBRANCH  29  30
ENDBRANCH   2  29
BRANCH   6  43
ATOM     43  C   UNL d   1       7.695  -8.049   2.113  0.00  0.00     0.198 C 
BRANCH  43  44
ATOM     44  O   UNL d   1       8.040  -7.124   2.274  0.00  0.00    -0.398 OA
ATOM     45  H   UNL d   1       7.690  -6.633   2.130  0.00  0.00     0.209 HD
ENDBRANCH  43  44
ENDBRANCH   6  43
BRANCH   3  46
ATOM     46  O   UNL d   1       8.344 -11.340   2.978  0.00  0.00    -0.390 OA
ATOM     47  H   UNL d   1       8.384 -11.490   2.378  0.00  0.00     0.210 HD
ENDBRANCH   3  46
BRANCH   4  48
ATOM     48  O   UNL d   1       8.116  -9.929   1.579  0.00  0.00    -0.390 OA
ATOM     49  H   UNL d   1       7.837  -9.583   1.146  0.00  0.00     0.210 HD
ENDBRANCH   4  48
TORSDOF 14
ENDMDL
MODEL 3
REMARK VINA RESULT:    -8.010      2.194      7.398
REMARK INTER + INTRA:          -2.880
REMARK INTER:                 -13.607
REMARK INTRA:                  10.727
REMARK UNBOUND:                 9.812
REMARK  14 active torsions:
REMARK  status: ('A' for Active; 'I' for Inactive)
REMARK    1  A    between atoms: C_15  and  O_1 
REMARK    2  A    between atoms: C_18  and  O_1 
REMARK    3  A    between atoms: C_16  and  O_4 
REMARK    4  A    between atoms: C_20  and  O_5 
REMARK    5  A    between atoms: O_5  and  C_27 
REMARK    6  A    between atoms: C_17  and  O_6 
REMARK    7  A    between atoms: C_19  and  O_7 
REMARK    8  A    between atoms: C_22  and  O_8 
REMARK    9  A    between atoms: C_23  and  O_9 
REMARK   10  A    between atoms: O_10  and  C_25 
REMARK   11  A    between atoms: O_12  and  C_31 
REMARK   12  A    between atoms: O_14  and  C_41 
REMARK   13  A    between atoms: C_21  and  C_25 
REMARK   14  A    between atoms: C_34  and  C_36 
ROOT
ATOM      1  O   UNL d   1       0.615  -5.767  17.968  0.00  0.00    -0.348 OA
ATOM      2  C   UNL d   1       1.801  -6.351  19.088  0.00  0.00     0.211 A 
ATOM      3  C   UNL d   1       1.343  -5.860  19.829  0.00  0.00     0.183 A 
ATOM      4  C   UNL d   1       0.521  -5.322  19.639  0.00  0.00     0.180 A 
ATOM      5  C   UNL d   1       1.437  -6.305  18.157  0.00  0.00     0.298 A 
ATOM      6  C   UNL d   1       0.157  -5.276  18.709  0.00  0.00     0.179 A 
ENDROOT
BRANCH   5   7
ATOM      7  O   UNL d   1       1.895  -6.796  17.416  0.00  0.00    -0.318 OA
BRANCH   7   8
ATOM      8  C   UNL d   1       1.582  -6.683  16.473  0.00  0.00     0.077 A 
ATOM      9  C   UNL d   1       1.755  -5.789  15.966  0.00  0.00     0.075 A 
ATOM     10  C   UNL d   1       1.425  -5.683  14.985  0.00  0.00     0.095 A 
ATOM     11  O   UNL d   1       1.595  -4.822  14.505  0.00  0.00    -0.309 OA
ATOM     12  C   UNL d   1       0.944  -6.427  14.521  0.00  0.00     0.081 A 
ATOM     13  C   UNL d   1       1.284  -4.705  13.561  0.00  0.00     0.090 A 
ATOM     14  C   UNL d   1       0.803  -5.449  13.098  0.00  0.00     0.094 A 
ATOM     15  C   UNL d   1       0.633  -6.310  13.578  0.00  0.00     0.190 A 
ATOM     16  O   UNL d   1       0.151  -7.054  13.115  0.00  0.00    -0.287 OA
ATOM     17  C   UNL d   1       0.760  -7.329  15.008  0.00  0.00     0.085 A 
ATOM     18  C   UNL d   1       1.081  -7.458  15.990  0.00  0.00     0.074 A 
BRANCH  13  19
ATOM     19  C   UNL d   1       1.454  -3.844  13.081  0.00  0.00    -0.002 A 
ATOM     20  C   UNL d   1       0.917  -3.609  12.271  0.00  0.00     0.017 A 
ATOM     21  C   UNL d   1       1.088  -2.749  11.791  0.00  0.00     0.037 A 
ATOM     22  C   UNL d   1       1.794  -2.123  12.122  0.00  0.00     0.065 A 
ATOM     23  C   UNL d   1       2.330  -2.358  12.932  0.00  0.00     0.037 A 
ATOM     24  C   UNL d   1       2.160  -3.219  13.413  0.00  0.00     0.017 A 
BRANCH  22  25
ATOM     25  O   UNL d   1       1.964  -1.262  11.642  0.00  0.00    -0.361 OA
ATOM     26  H   UNL d   1       2.388  -1.238  11.190  0.00  0.00     0.217 HD
ENDBRANCH  22  25
ENDBRANCH  13  19
BRANCH  17  27
ATOM     27  O   UNL d   1       0.277  -8.067  14.535  0.00  0.00    -0.360 OA
ATOM     28  H   UNL d   1      -0.337  -8.126  14.599  0.00  0.00     0.217 HD
ENDBRANCH  17  27
ENDBRANCH   7   8
ENDBRANCH   5   7
BRANCH   2  29
ATOM     29  O   UNL d   1       2.623  -6.888  19.277  0.00  0.00    -0.346 OA
BRANCH  29  30
ATOM     30  C   UNL d   1       2.544  -7.788  19.707  0.00  0.00     0.292 A 
ATOM     31  O   UNL d   1       1.648  -8.226  19.790  0.00  0.00    -0.351 OA
ATOM     32  C   UNL d   1       1.570  -9.125  20.220  0.00  0.00     0.152 A 
ATOM     33  C   UNL d   1       2.386  -9.586  20.567  0.00  0.00     0.178 A 
ATOM     34  C   UNL d   1       0.674  -9.563  20.302  0.00  0.00     0.042 C 
ATOM     35  C   UNL d   1       3.281  -9.148  20.485  0.00  0.00     0.183 A 
ATOM     36  C   UNL d   1       3.360  -8.249  20.055  0.00  0.00     0.204 A 
BRANCH  33  37
ATOM     37  O   UNL d   1       2.307 -10.486  20.997  0.00  0.00    -0.390 OA
ATOM     38  H   UNL d   1       1.760 -10.677  21.218  0.00  0.00     0.210 HD
ENDBRANCH  33  37
BRANCH  35  39
ATOM     39  O   UNL d   1       4.097  -9.610  20.832  0.00  0.00    -0.390 OA
ATOM     40  H   UNL d   1       4.640  -9.309  20.849  0.00  0.00     0.210 HD
ENDBRANCH  35  39
BRANCH  36  41
ATOM     41  O   UNL d   1       4.255  -7.811  19.972  0.00  0.00    -0.388 OA
ATOM     42  H   UNL d   1       4.676  -8.038  19.577  0.00  0.00     0.210 HD
ENDBRANCH  36  41
ENDBRANCH  29  30
ENDBRANCH   2  29
BRANCH   6  43
ATOM     43  C   UNL d   1      -0.664  -4.739  18.519  0.00  0.00     0.198 C 
BRANCH  43  44
ATOM     44  O   UNL d   1      -0.623  -3.969  17.882  0.00  0.00    -0.398 OA
ATOM     45  H   UNL d   1      -0.612  -4.073  17.271  0.00  0.00     0.209 HD
ENDBRANCH  43  44
ENDBRANCH   6  43
BRANCH   3  46
ATOM     46  O   UNL d   1       1.707  -5.906  20.759  0.00  0.00    -0.390 OA
ATOM     47  H   UNL d   1       1.716  -6.447  21.062  0.00  0.00     0.210 HD
ENDBRANCH   3  46
BRANCH   4  48
ATOM     48  O   UNL d   1       0.063  -4.831  20.380  0.00  0.00    -0.390 OA
ATOM     49  H   UNL d   1       0.056  -4.211  20.383  0.00  0.00     0.210 HD
ENDBRANCH   4  48
TORSDOF 14
ENDMDL
MODEL 4
REMARK VINA RESULT:    -7.965      1.204      7.423
REMARK INTER + INTRA:          -2.809
REMARK INTER:                 -12.847
REMARK INTRA:                  10.039
REMARK UNBOUND:                 9.812
REMARK  14 active torsions:
REMARK  status: ('A' for Active; 'I' for Inactive)
REMARK    1  A    between atoms: C_15  and  O_1 
REMARK    2  A    between atoms: C_18  and  O_1 
REMARK    3  A    between atoms: C_16  and  O_4 
REMARK    4  A    between atoms: C_20  and  O_5 
REMARK    5  A    between atoms: O_5  and  C_27 
REMARK    6  A    between atoms: C_17  and  O_6 
REMARK    7  A    between atoms: C_19  and  O_7 
REMARK    8  A    between atoms: C_22  and  O_8 
REMARK    9  A    between atoms: C_23  and  O_9 
REMARK   10  A    between atoms: O_10  and  C_25 
REMARK   11  A    between atoms: O_12  and  C_31 
REMARK   12  A    between atoms: O_14  and  C_41 
REMARK   13  A    between atoms: C_21  and  C_25 
REMARK   14  A    between atoms: C_34  and  C_36 
ROOT
ATOM      1  O   UNL d   1       1.915  -8.574  20.303  0.00  0.00    -0.348 OA
ATOM      2  C   UNL d   1       3.439  -8.584  21.126  0.00  0.00     0.211 A 
ATOM      3  C   UNL d   1       3.183  -9.432  21.589  0.00  0.00     0.183 A 
ATOM      4  C   UNL d   1       2.294  -9.852  21.409  0.00  0.00     0.180 A 
ATOM      5  C   UNL d   1       2.805  -8.154  20.483  0.00  0.00     0.298 A 
ATOM      6  C   UNL d   1       1.660  -9.422  20.766  0.00  0.00     0.179 A 
ENDROOT
BRANCH   5   7
ATOM      7  O   UNL d   1       3.061  -7.306  20.020  0.00  0.00    -0.318 OA
BRANCH   7   8
ATOM      8  C   UNL d   1       2.395  -6.830  19.444  0.00  0.00     0.077 A 
ATOM      9  C   UNL d   1       2.448  -6.909  18.407  0.00  0.00     0.075 A 
ATOM     10  C   UNL d   1       1.750  -6.410  17.817  0.00  0.00     0.095 A 
ATOM     11  O   UNL d   1       1.807  -6.490  16.822  0.00  0.00    -0.309 OA
ATOM     12  C   UNL d   1       1.029  -5.855  18.233  0.00  0.00     0.081 A 
ATOM     13  C   UNL d   1       1.144  -6.016  16.243  0.00  0.00     0.090 A 
ATOM     14  C   UNL d   1       0.423  -5.462  16.659  0.00  0.00     0.094 A 
ATOM     15  C   UNL d   1       0.366  -5.381  17.654  0.00  0.00     0.190 A 
ATOM     16  O   UNL d   1      -0.355  -4.827  18.070  0.00  0.00    -0.287 OA
ATOM     17  C   UNL d   1       0.957  -5.762  19.268  0.00  0.00     0.085 A 
ATOM     18  C   UNL d   1       1.644  -6.252  19.877  0.00  0.00     0.074 A 
BRANCH  13  19
ATOM     19  C   UNL d   1       1.201  -6.096  15.247  0.00  0.00    -0.002 A 
ATOM     20  C   UNL d   1       0.472  -6.555  14.740  0.00  0.00     0.017 A 
ATOM     21  C   UNL d   1       0.529  -6.635  13.745  0.00  0.00     0.037 A 
ATOM     22  C   UNL d   1       1.315  -6.256  13.257  0.00  0.00     0.065 A 
ATOM     23  C   UNL d   1       2.045  -5.797  13.765  0.00  0.00     0.037 A 
ATOM     24  C   UNL d   1       1.988  -5.717  14.760  0.00  0.00     0.017 A 
BRANCH  22  25
ATOM     25  O   UNL d   1       1.372  -6.337  12.262  0.00  0.00    -0.361 OA
ATOM     26  H   UNL d   1       0.929  -6.090  11.905  0.00  0.00     0.217 HD
ENDBRANCH  22  25
ENDBRANCH  13  19
BRANCH  17  27
ATOM     27  O   UNL d   1       0.232  -5.204  19.673  0.00  0.00    -0.360 OA
ATOM     28  H   UNL d   1       0.213  -5.121  20.288  0.00  0.00     0.217 HD
ENDBRANCH  17  27
ENDBRANCH   7   8
ENDBRANCH   5   7
BRANCH   2  29
ATOM     29  O   UNL d   1       4.329  -8.164  21.306  0.00  0.00    -0.346 OA
BRANCH  29  30
ATOM     30  C   UNL d   1       4.443  -7.549  22.086  0.00  0.00     0.292 A 
ATOM     31  O   UNL d   1       3.639  -7.174  22.549  0.00  0.00    -0.351 OA
ATOM     32  C   UNL d   1       3.753  -6.558  23.329  0.00  0.00     0.152 A 
ATOM     33  C   UNL d   1       4.670  -6.318  23.646  0.00  0.00     0.178 A 
ATOM     34  C   UNL d   1       2.950  -6.184  23.791  0.00  0.00     0.042 C 
ATOM     35  C   UNL d   1       5.474  -6.692  23.183  0.00  0.00     0.183 A 
ATOM     36  C   UNL d   1       5.360  -7.308  22.403  0.00  0.00     0.204 A 
BRANCH  33  37
ATOM     37  O   UNL d   1       4.784  -5.702  24.426  0.00  0.00    -0.390 OA
ATOM     38  H   UNL d   1       4.309  -5.351  24.616  0.00  0.00     0.210 HD
ENDBRANCH  33  37
BRANCH  35  39
ATOM     39  O   UNL d   1       6.391  -6.451  23.500  0.00  0.00    -0.390 OA
ATOM     40  H   UNL d   1       6.470  -5.969  23.882  0.00  0.00     0.210 HD
ENDBRANCH  35  39
BRANCH  36  41
ATOM     41  O   UNL d   1       6.163  -7.682  21.940  0.00  0.00    -0.388 OA
ATOM     42  H   UNL d   1       6.265  -8.294  21.942  0.00  0.00     0.210 HD
ENDBRANCH  36  41
ENDBRANCH  29  30
ENDBRANCH   2  29
BRANCH   6  43
ATOM     43  C   UNL d   1       0.770  -9.842  20.586  0.00  0.00     0.198 C 
BRANCH  43  44
ATOM     44  O   UNL d   1      -0.020  -9.267  20.372  0.00  0.00    -0.398 OA
ATOM     45  H   UNL d   1      -0.574  -9.396  20.619  0.00  0.00     0.209 HD
ENDBRANCH  43  44
ENDBRANCH   6  43
BRANCH   3  46
ATOM     46  O   UNL d   1       3.817  -9.861  22.232  0.00  0.00    -0.390 OA
ATOM     47  H   UNL d   1       3.863  -9.647  22.812  0.00  0.00     0.210 HD
ENDBRANCH   3  46
BRANCH   4  48
ATOM     48  O   UNL d   1       2.038 -10.700  21.872  0.00  0.00    -0.390 OA
ATOM     49  H   UNL d   1       2.373 -11.214  21.785  0.00  0.00     0.210 HD
ENDBRANCH   4  48
TORSDOF 14
ENDMDL
MODEL 5
REMARK VINA RESULT:    -7.915     12.247     15.744
REMARK INTER + INTRA:          -2.729
REMARK INTER:                 -12.525
REMARK INTRA:                   9.796
REMARK UNBOUND:                 9.812
REMARK  14 active torsions:
REMARK  status: ('A' for Active; 'I' for Inactive)
REMARK    1  A    between atoms: C_15  and  O_1 
REMARK    2  A    between atoms: C_18  and  O_1 
REMARK    3  A    between atoms: C_16  and  O_4 
REMARK    4  A    between atoms: C_20  and  O_5 
REMARK    5  A    between atoms: O_5  and  C_27 
REMARK    6  A    between atoms: C_17  and  O_6 
REMARK    7  A    between atoms: C_19  and  O_7 
REMARK    8  A    between atoms: C_22  and  O_8 
REMARK    9  A    between atoms: C_23  and  O_9 
REMARK   10  A    between atoms: O_10  and  C_25 
REMARK   11  A    between atoms: O_12  and  C_31 
REMARK   12  A    between atoms: O_14  and  C_41 
REMARK   13  A    between atoms: C_21  and  C_25 
REMARK   14  A    between atoms: C_34  and  C_36 
ROOT
ATOM      1  O   UNL d   1       9.622 -19.799  23.436  0.00  0.00    -0.348 OA
ATOM      2  C   UNL d   1       9.502 -18.073  23.499  0.00  0.00     0.211 A 
ATOM      3  C   UNL d   1      10.499 -18.002  23.468  0.00  0.00     0.183 A 
ATOM      4  C   UNL d   1      11.058 -18.830  23.420  0.00  0.00     0.180 A 
ATOM      5  C   UNL d   1       9.064 -18.971  23.483  0.00  0.00     0.298 A 
ATOM      6  C   UNL d   1      10.619 -19.729  23.404  0.00  0.00     0.179 A 
ENDROOT
BRANCH   5   7
ATOM      7  O   UNL d   1       8.067 -19.042  23.515  0.00  0.00    -0.318 OA
BRANCH   7   8
ATOM      8  C   UNL d   1       7.606 -19.820  23.087  0.00  0.00     0.077 A 
ATOM      9  C   UNL d   1       7.539 -19.883  22.049  0.00  0.00     0.075 A 
ATOM     10  C   UNL d   1       7.058 -20.698  21.614  0.00  0.00     0.095 A 
ATOM     11  O   UNL d   1       6.997 -20.752  20.617  0.00  0.00    -0.309 OA
ATOM     12  C   UNL d   1       6.659 -21.421  22.179  0.00  0.00     0.081 A 
ATOM     13  C   UNL d   1       6.538 -21.528  20.186  0.00  0.00     0.090 A 
ATOM     14  C   UNL d   1       6.139 -22.250  20.751  0.00  0.00     0.094 A 
ATOM     15  C   UNL d   1       6.199 -22.197  21.747  0.00  0.00     0.190 A 
ATOM     16  O   UNL d   1       5.801 -22.919  22.312  0.00  0.00    -0.287 OA
ATOM     17  C   UNL d   1       6.714 -21.378  23.219  0.00  0.00     0.085 A 
ATOM     18  C   UNL d   1       7.191 -20.573  23.675  0.00  0.00     0.074 A 
BRANCH  13  19
ATOM     19  C   UNL d   1       6.477 -21.582  19.189  0.00  0.00    -0.002 A 
ATOM     20  C   UNL d   1       5.597 -21.446  18.733  0.00  0.00     0.017 A 
ATOM     21  C   UNL d   1       5.537 -21.501  17.736  0.00  0.00     0.037 A 
ATOM     22  C   UNL d   1       6.356 -21.691  17.195  0.00  0.00     0.065 A 
ATOM     23  C   UNL d   1       7.236 -21.827  17.651  0.00  0.00     0.037 A 
ATOM     24  C   UNL d   1       7.296 -21.773  18.648  0.00  0.00     0.017 A 
BRANCH  22  25
ATOM     25  O   UNL d   1       6.295 -21.745  16.198  0.00  0.00    -0.361 OA
ATOM     26  H   UNL d   1       6.084 -21.261  15.874  0.00  0.00     0.217 HD
ENDBRANCH  22  25
ENDBRANCH  13  19
BRANCH  17  27
ATOM     27  O   UNL d   1       6.312 -22.106  23.774  0.00  0.00    -0.360 OA
ATOM     28  H   UNL d   1       5.782 -22.005  24.080  0.00  0.00     0.217 HD
ENDBRANCH  17  27
ENDBRANCH   7   8
ENDBRANCH   5   7
BRANCH   2  29
ATOM     29  O   UNL d   1       8.943 -17.245  23.547  0.00  0.00    -0.346 OA
BRANCH  29  30
ATOM     30  C   UNL d   1       8.783 -16.800  24.428  0.00  0.00     0.292 A 
ATOM     31  O   UNL d   1       8.922 -17.309  25.278  0.00  0.00    -0.351 OA
ATOM     32  C   UNL d   1       8.762 -16.864  26.159  0.00  0.00     0.152 A 
ATOM     33  C   UNL d   1       8.463 -15.910  26.191  0.00  0.00     0.178 A 
ATOM     34  C   UNL d   1       8.900 -17.373  27.009  0.00  0.00     0.042 C 
ATOM     35  C   UNL d   1       8.325 -15.401  25.341  0.00  0.00     0.183 A 
ATOM     36  C   UNL d   1       8.485 -15.846  24.460  0.00  0.00     0.204 A 
BRANCH  33  37
ATOM     37  O   UNL d   1       8.303 -15.465  27.072  0.00  0.00    -0.390 OA
ATOM     38  H   UNL d   1       8.121 -14.873  27.091  0.00  0.00     0.210 HD
ENDBRANCH  33  37
BRANCH  35  39
ATOM     39  O   UNL d   1       8.027 -14.447  25.372  0.00  0.00    -0.390 OA
ATOM     40  H   UNL d   1       8.123 -14.076  24.885  0.00  0.00     0.210 HD
ENDBRANCH  35  39
BRANCH  36  41
ATOM     41  O   UNL d   1       8.347 -15.337  23.610  0.00  0.00    -0.388 OA
ATOM     42  H   UNL d   1       8.228 -15.640  23.083  0.00  0.00     0.210 HD
ENDBRANCH  36  41
ENDBRANCH  29  30
ENDBRANCH   2  29
BRANCH   6  43
ATOM     43  C   UNL d   1      11.178 -20.557  23.356  0.00  0.00     0.198 C 
BRANCH  43  44
ATOM     44  O   UNL d   1      10.841 -21.360  22.864  0.00  0.00    -0.398 OA
ATOM     45  H   UNL d   1      11.137 -21.559  22.357  0.00  0.00     0.209 HD
ENDBRANCH  43  44
ENDBRANCH   6  43
BRANCH   3  46
ATOM     46  O   UNL d   1      10.937 -17.104  23.484  0.00  0.00    -0.390 OA
ATOM     47  H   UNL d   1      11.458 -17.007  23.161  0.00  0.00     0.210 HD
ENDBRANCH   3  46
BRANCH   4  48
ATOM     48  O   UNL d   1      12.055 -18.760  23.388  0.00  0.00    -0.390 OA
ATOM     49  H   UNL d   1      12.392 -19.234  23.174  0.00  0.00     0.210 HD
ENDBRANCH   4  48
TORSDOF 14
ENDMDL
