MODEL 1
REMARK VINA RESULT:    -7.450      0.000      0.000
REMARK INTER + INTRA:          -7.157
REMARK INTER:                  -8.547
REMARK INTRA:                   1.390
REMARK UNBOUND:                 1.164
REMARK  3 active torsions:
REMARK  status: ('A' for Active; 'I' for Inactive)
REMARK    1  A    between atoms: O_2  and  C_10 
REMARK    2  A    between atoms: O_4  and  C_13 
REMARK    3  A    between atoms: C_7  and  C_9 
ROOT
ATOM      1  O   UNL d   1       1.072  -3.662  12.232  0.00  0.00    -0.309 OA
ATOM      2  O   UNL d   1       3.092  -3.163  14.393  0.00  0.00    -0.287 OA
ATOM      3  C   UNL d   1       1.984  -4.226  13.592  0.00  0.00     0.081 A 
ATOM      4  C   UNL d   1       1.311  -4.393  12.872  0.00  0.00     0.095 A 
ATOM      5  C   UNL d   1       1.506  -2.765  12.313  0.00  0.00     0.090 A 
ATOM      6  C   UNL d   1       2.418  -3.329  13.673  0.00  0.00     0.190 A 
ATOM      7  C   UNL d   1       2.243  -4.978  14.265  0.00  0.00     0.085 A 
ATOM      8  C   UNL d   1       2.179  -2.599  13.033  0.00  0.00     0.094 A 
ATOM      9  C   UNL d   1       0.850  -5.322  12.775  0.00  0.00     0.075 A 
ATOM     10  C   UNL d   1       1.094  -6.088  13.437  0.00  0.00     0.071 A 
ATOM     11  C   UNL d   1       1.795  -5.915  14.187  0.00  0.00     0.074 A 
ENDROOT
BRANCH   5  12
ATOM     12  C   UNL d   1       1.267  -2.035  11.673  0.00  0.00    -0.002 A 
ATOM     13  C   UNL d   1       0.838  -2.257  10.798  0.00  0.00     0.014 A 
ATOM     14  C   UNL d   1       0.599  -1.527  10.158  0.00  0.00     0.001 A 
ATOM     15  C   UNL d   1       0.788  -0.574  10.394  0.00  0.00     0.000 A 
ATOM     16  C   UNL d   1       1.217  -0.351  11.270  0.00  0.00     0.001 A 
ATOM     17  C   UNL d   1       1.456  -1.082  11.909  0.00  0.00     0.014 A 
ENDBRANCH   5  12
BRANCH   7  18
ATOM     18  O   UNL d   1       2.918  -4.800  14.981  0.00  0.00    -0.360 OA
ATOM     19  H   UNL d   1       3.503  -4.992  14.910  0.00  0.00     0.217 HD
ENDBRANCH   7  18
BRANCH  10  20
ATOM     20  O   UNL d   1       0.657  -6.984  13.353  0.00  0.00    -0.361 OA
ATOM     21  H   UNL d   1       0.078  -7.027  13.136  0.00  0.00     0.217 HD
ENDBRANCH  10  20
TORSDOF 3
ENDMDL
MODEL 2
REMARK VINA RESULT:    -7.432     21.026     22.148
REMARK INTER + INTRA:          -7.137
REMARK INTER:                  -8.145
REMARK INTRA:                   1.009
REMARK UNBOUND:                 1.164
REMARK  3 active torsions:
REMARK  status: ('A' for Active; 'I' for Inactive)
REMARK    1  A    between atoms: O_2  and  C_10 
REMARK    2  A    between atoms: O_4  and  C_13 
REMARK    3  A    between atoms: C_7  and  C_9 
ROOT
ATOM      1  O   UNL d   1     -10.897   6.286  -1.421  0.00  0.00    -0.309 OA
ATOM      2  O   UNL d   1     -11.589   8.737  -3.007  0.00  0.00    -0.287 OA
ATOM      3  C   UNL d   1     -11.476   7.917  -1.485  0.00  0.00     0.081 A 
ATOM      4  C   UNL d   1     -11.245   7.100  -0.957  0.00  0.00     0.095 A 
ATOM      5  C   UNL d   1     -10.780   6.289  -2.414  0.00  0.00     0.090 A 
ATOM      6  C   UNL d   1     -11.359   7.920  -2.478  0.00  0.00     0.190 A 
ATOM      7  C   UNL d   1     -11.839   8.772  -1.015  0.00  0.00     0.085 A 
ATOM      8  C   UNL d   1     -11.011   7.105  -2.943  0.00  0.00     0.094 A 
ATOM      9  C   UNL d   1     -11.362   7.082   0.078  0.00  0.00     0.075 A 
ATOM     10  C   UNL d   1     -11.724   7.927   0.569  0.00  0.00     0.071 A 
ATOM     11  C   UNL d   1     -11.964   8.777   0.019  0.00  0.00     0.074 A 
ENDROOT
BRANCH   5  12
ATOM     12  C   UNL d   1     -10.432   5.474  -2.879  0.00  0.00    -0.002 A 
ATOM     13  C   UNL d   1     -11.049   4.717  -3.090  0.00  0.00     0.014 A 
ATOM     14  C   UNL d   1     -10.701   3.902  -3.555  0.00  0.00     0.001 A 
ATOM     15  C   UNL d   1      -9.736   3.846  -3.808  0.00  0.00     0.000 A 
ATOM     16  C   UNL d   1      -9.118   4.603  -3.596  0.00  0.00     0.001 A 
ATOM     17  C   UNL d   1      -9.466   5.417  -3.132  0.00  0.00     0.014 A 
ENDBRANCH   5  12
BRANCH   7  18
ATOM     18  O   UNL d   1     -12.067   9.584  -1.554  0.00  0.00    -0.360 OA
ATOM     19  H   UNL d   1     -12.115  10.136  -1.277  0.00  0.00     0.217 HD
ENDBRANCH   7  18
BRANCH  10  20
ATOM     20  O   UNL d   1     -11.839   7.920   1.563  0.00  0.00    -0.361 OA
ATOM     21  H   UNL d   1     -11.684   8.419   1.896  0.00  0.00     0.217 HD
ENDBRANCH  10  20
TORSDOF 3
ENDMDL
MODEL 3
REMARK VINA RESULT:    -7.338     20.890     22.216
REMARK INTER + INTRA:          -7.032
REMARK INTER:                  -8.443
REMARK INTRA:                   1.411
REMARK UNBOUND:                 1.164
REMARK  3 active torsions:
REMARK  status: ('A' for Active; 'I' for Inactive)
REMARK    1  A    between atoms: O_2  and  C_10 
REMARK    2  A    between atoms: O_4  and  C_13 
REMARK    3  A    between atoms: C_7  and  C_9 
ROOT
ATOM      1  O   UNL d   1     -11.150   7.692  -2.139  0.00  0.00    -0.309 OA
ATOM      2  O   UNL d   1     -11.171   6.422   0.579  0.00  0.00    -0.287 OA
ATOM      3  C   UNL d   1     -11.541   7.763  -0.453  0.00  0.00     0.081 A 
ATOM      4  C   UNL d   1     -11.534   8.187  -1.359  0.00  0.00     0.095 A 
ATOM      5  C   UNL d   1     -10.774   6.774  -2.013  0.00  0.00     0.090 A 
ATOM      6  C   UNL d   1     -11.164   6.846  -0.327  0.00  0.00     0.190 A 
ATOM      7  C   UNL d   1     -11.937   8.266   0.368  0.00  0.00     0.085 A 
ATOM      8  C   UNL d   1     -10.781   6.351  -1.107  0.00  0.00     0.094 A 
ATOM      9  C   UNL d   1     -11.922   9.142  -1.506  0.00  0.00     0.075 A 
ATOM     10  C   UNL d   1     -12.323   9.663  -0.699  0.00  0.00     0.071 A 
ATOM     11  C   UNL d   1     -12.331   9.223   0.245  0.00  0.00     0.074 A 
ENDROOT
BRANCH   5  12
ATOM     12  C   UNL d   1     -10.390   6.280  -2.793  0.00  0.00    -0.002 A 
ATOM     13  C   UNL d   1      -9.838   5.460  -2.642  0.00  0.00     0.014 A 
ATOM     14  C   UNL d   1      -9.454   4.965  -3.422  0.00  0.00     0.001 A 
ATOM     15  C   UNL d   1      -9.623   5.291  -4.353  0.00  0.00     0.000 A 
ATOM     16  C   UNL d   1     -10.176   6.110  -4.503  0.00  0.00     0.001 A 
ATOM     17  C   UNL d   1     -10.559   6.605  -3.723  0.00  0.00     0.014 A 
ENDBRANCH   5  12
BRANCH   7  18
ATOM     18  O   UNL d   1     -11.938   7.833   1.270  0.00  0.00    -0.360 OA
ATOM     19  H   UNL d   1     -12.464   7.599   1.500  0.00  0.00     0.217 HD
ENDBRANCH   7  18
BRANCH  10  20
ATOM     20  O   UNL d   1     -12.699  10.581  -0.829  0.00  0.00    -0.361 OA
ATOM     21  H   UNL d   1     -12.335  11.078  -0.754  0.00  0.00     0.217 HD
ENDBRANCH  10  20
TORSDOF 3
ENDMDL
MODEL 4
REMARK VINA RESULT:    -7.219     20.854     22.238
REMARK INTER + INTRA:          -6.899
REMARK INTER:                  -8.217
REMARK INTRA:                   1.318
REMARK UNBOUND:                 1.164
REMARK  3 active torsions:
REMARK  status: ('A' for Active; 'I' for Inactive)
REMARK    1  A    between atoms: O_2  and  C_10 
REMARK    2  A    between atoms: O_4  and  C_13 
REMARK    3  A    between atoms: C_7  and  C_9 
ROOT
ATOM      1  O   UNL d   1     -11.331   7.811  -2.143  0.00  0.00    -0.309 OA
ATOM      2  O   UNL d   1     -10.600   5.353  -0.588  0.00  0.00    -0.287 OA
ATOM      3  C   UNL d   1     -10.662   6.215  -2.088  0.00  0.00     0.081 A 
ATOM      4  C   UNL d   1     -10.906   7.034  -2.607  0.00  0.00     0.095 A 
ATOM      5  C   UNL d   1     -11.513   7.769  -1.160  0.00  0.00     0.090 A 
ATOM      6  C   UNL d   1     -10.844   6.172  -1.106  0.00  0.00     0.190 A 
ATOM      7  C   UNL d   1     -10.219   5.398  -2.558  0.00  0.00     0.085 A 
ATOM      8  C   UNL d   1     -11.269   6.949  -0.642  0.00  0.00     0.094 A 
ATOM      9  C   UNL d   1     -10.723   7.094  -3.631  0.00  0.00     0.075 A 
ATOM     10  C   UNL d   1     -10.281   6.288  -4.121  0.00  0.00     0.071 A 
ATOM     11  C   UNL d   1     -10.027   5.435  -3.581  0.00  0.00     0.074 A 
ENDROOT
BRANCH   5  12
ATOM     12  C   UNL d   1     -11.938   8.546  -0.696  0.00  0.00    -0.002 A 
ATOM     13  C   UNL d   1     -12.523   8.393   0.101  0.00  0.00     0.014 A 
ATOM     14  C   UNL d   1     -12.948   9.171   0.565  0.00  0.00     0.001 A 
ATOM     15  C   UNL d   1     -12.789  10.100   0.232  0.00  0.00     0.000 A 
ATOM     16  C   UNL d   1     -12.204  10.252  -0.565  0.00  0.00     0.001 A 
ATOM     17  C   UNL d   1     -11.779   9.475  -1.029  0.00  0.00     0.014 A 
ENDBRANCH   5  12
BRANCH   7  18
ATOM     18  O   UNL d   1      -9.979   4.583  -2.030  0.00  0.00    -0.360 OA
ATOM     19  H   UNL d   1     -10.327   4.415  -1.545  0.00  0.00     0.217 HD
ENDBRANCH   7  18
BRANCH  10  20
ATOM     20  O   UNL d   1     -10.101   6.335  -5.104  0.00  0.00    -0.361 OA
ATOM     21  H   UNL d   1     -10.523   6.123  -5.506  0.00  0.00     0.217 HD
ENDBRANCH  10  20
TORSDOF 3
ENDMDL
MODEL 5
REMARK VINA RESULT:    -6.915     21.022     22.360
REMARK INTER + INTRA:          -6.559
REMARK INTER:                  -7.970
REMARK INTRA:                   1.411
REMARK UNBOUND:                 1.164
REMARK  3 active torsions:
REMARK  status: ('A' for Active; 'I' for Inactive)
REMARK    1  A    between atoms: O_2  and  C_10 
REMARK    2  A    between atoms: O_4  and  C_13 
REMARK    3  A    between atoms: C_7  and  C_9 
ROOT
ATOM      1  O   UNL d   1     -11.054   6.655  -1.546  0.00  0.00    -0.309 OA
ATOM      2  O   UNL d   1     -11.014   8.050  -4.201  0.00  0.00    -0.287 OA
ATOM      3  C   UNL d   1     -10.677   6.652  -3.236  0.00  0.00     0.081 A 
ATOM      4  C   UNL d   1     -10.691   6.187  -2.351  0.00  0.00     0.095 A 
ATOM      5  C   UNL d   1     -11.404   7.589  -1.626  0.00  0.00     0.090 A 
ATOM      6  C   UNL d   1     -11.027   7.585  -3.316  0.00  0.00     0.190 A 
ATOM      7  C   UNL d   1     -10.302   6.177  -4.083  0.00  0.00     0.085 A 
ATOM      8  C   UNL d   1     -11.391   8.054  -2.511  0.00  0.00     0.094 A 
ATOM      9  C   UNL d   1     -10.330   5.215  -2.252  0.00  0.00     0.075 A 
ATOM     10  C   UNL d   1      -9.949   4.721  -3.086  0.00  0.00     0.071 A 
ATOM     11  C   UNL d   1      -9.935   5.205  -4.008  0.00  0.00     0.074 A 
ENDROOT
BRANCH   5  12
ATOM     12  C   UNL d   1     -11.768   8.057  -0.820  0.00  0.00    -0.002 A 
ATOM     13  C   UNL d   1     -12.289   8.904  -0.927  0.00  0.00     0.014 A 
ATOM     14  C   UNL d   1     -12.653   9.372  -0.122  0.00  0.00     0.001 A 
ATOM     15  C   UNL d   1     -12.495   8.993   0.790  0.00  0.00     0.000 A 
ATOM     16  C   UNL d   1     -11.974   8.146   0.897  0.00  0.00     0.001 A 
ATOM     17  C   UNL d   1     -11.611   7.678   0.092  0.00  0.00     0.014 A 
ENDBRANCH   5  12
BRANCH   7  18
ATOM     18  O   UNL d   1     -10.293   6.652  -4.964  0.00  0.00    -0.360 OA
ATOM     19  H   UNL d   1      -9.814   6.579  -5.350  0.00  0.00     0.217 HD
ENDBRANCH   7  18
BRANCH  10  20
ATOM     20  O   UNL d   1      -9.600   3.787  -3.002  0.00  0.00    -0.361 OA
ATOM     21  H   UNL d   1      -9.964   3.306  -3.147  0.00  0.00     0.217 HD
ENDBRANCH  10  20
TORSDOF 3
ENDMDL
