MODEL 1
REMARK VINA RESULT:    -9.728      0.000      0.000
REMARK INTER + INTRA:          -9.813
REMARK INTER:                 -10.977
REMARK INTRA:                   1.164
REMARK UNBOUND:                 1.053
REMARK  3 active torsions:
REMARK  status: ('A' for Active; 'I' for Inactive)
REMARK    1  A    between atoms: O_2  and  C_10 
REMARK    2  A    between atoms: O_4  and  C_13 
REMARK    3  A    between atoms: C_7  and  C_9 
ROOT
ATOM      1  O   UNL d   1     -28.825 -28.889  22.879  0.00  0.00    -0.309 OA
ATOM      2  O   UNL d   1     -30.156 -26.801  24.572  0.00  0.00    -0.287 OA
ATOM      3  C   UNL d   1     -29.541 -27.320  23.038  0.00  0.00     0.081 A 
ATOM      4  C   UNL d   1     -29.097 -28.016  22.474  0.00  0.00     0.095 A 
ATOM      5  C   UNL d   1     -28.996 -29.066  23.848  0.00  0.00     0.090 A 
ATOM      6  C   UNL d   1     -29.712 -27.497  24.007  0.00  0.00     0.190 A 
ATOM      7  C   UNL d   1     -29.831 -26.407  22.630  0.00  0.00     0.085 A 
ATOM      8  C   UNL d   1     -29.440 -28.369  24.412  0.00  0.00     0.094 A 
ATOM      9  C   UNL d   1     -28.912 -27.847  21.462  0.00  0.00     0.075 A 
ATOM     10  C   UNL d   1     -29.194 -26.940  21.034  0.00  0.00     0.071 A 
ATOM     11  C   UNL d   1     -29.656 -26.216  21.621  0.00  0.00     0.074 A 
ENDROOT
BRANCH   5  12
ATOM     12  C   UNL d   1     -28.723 -29.938  24.253  0.00  0.00    -0.002 A 
ATOM     13  C   UNL d   1     -28.983 -30.797  23.812  0.00  0.00     0.014 A 
ATOM     14  C   UNL d   1     -28.710 -31.670  24.217  0.00  0.00     0.001 A 
ATOM     15  C   UNL d   1     -28.177 -31.684  25.063  0.00  0.00     0.000 A 
ATOM     16  C   UNL d   1     -27.918 -30.825  25.504  0.00  0.00     0.001 A 
ATOM     17  C   UNL d   1     -28.190 -29.952  25.099  0.00  0.00     0.014 A 
ENDBRANCH   5  12
BRANCH   7  18
ATOM     18  O   UNL d   1     -30.274 -25.718  23.204  0.00  0.00    -0.360 OA
ATOM     19  H   UNL d   1     -30.136 -25.119  23.130  0.00  0.00     0.217 HD
ENDBRANCH   7  18
BRANCH  10  20
ATOM     20  O   UNL d   1     -29.021 -26.768  20.064  0.00  0.00    -0.361 OA
ATOM     21  H   UNL d   1     -29.187 -26.227  19.811  0.00  0.00     0.217 HD
ENDBRANCH  10  20
TORSDOF 3
ENDMDL
MODEL 2
REMARK VINA RESULT:    -9.510      0.820      1.964
REMARK INTER + INTRA:          -9.569
REMARK INTER:                 -10.628
REMARK INTRA:                   1.059
REMARK UNBOUND:                 1.053
REMARK  3 active torsions:
REMARK  status: ('A' for Active; 'I' for Inactive)
REMARK    1  A    between atoms: O_2  and  C_10 
REMARK    2  A    between atoms: O_4  and  C_13 
REMARK    3  A    between atoms: C_7  and  C_9 
ROOT
ATOM      1  O   UNL d   1     -29.575 -28.421  23.645  0.00  0.00    -0.309 OA
ATOM      2  O   UNL d   1     -28.188 -28.121  21.001  0.00  0.00    -0.287 OA
ATOM      3  C   UNL d   1     -29.302 -27.526  22.187  0.00  0.00     0.081 A 
ATOM      4  C   UNL d   1     -29.764 -27.626  23.068  0.00  0.00     0.095 A 
ATOM      5  C   UNL d   1     -28.923 -29.116  23.341  0.00  0.00     0.090 A 
ATOM      6  C   UNL d   1     -28.650 -28.221  21.883  0.00  0.00     0.190 A 
ATOM      7  C   UNL d   1     -29.490 -26.704  21.576  0.00  0.00     0.085 A 
ATOM      8  C   UNL d   1     -28.461 -29.016  22.459  0.00  0.00     0.094 A 
ATOM      9  C   UNL d   1     -30.446 -26.911  23.399  0.00  0.00     0.075 A 
ATOM     10  C   UNL d   1     -30.648 -26.081  22.803  0.00  0.00     0.071 A 
ATOM     11  C   UNL d   1     -30.167 -25.977  21.886  0.00  0.00     0.074 A 
ENDROOT
BRANCH   5  12
ATOM     12  C   UNL d   1     -28.733 -29.910  23.917  0.00  0.00    -0.002 A 
ATOM     13  C   UNL d   1     -29.024 -30.821  23.625  0.00  0.00     0.014 A 
ATOM     14  C   UNL d   1     -28.834 -31.616  24.202  0.00  0.00     0.001 A 
ATOM     15  C   UNL d   1     -28.354 -31.499  25.071  0.00  0.00     0.000 A 
ATOM     16  C   UNL d   1     -28.063 -30.588  25.363  0.00  0.00     0.001 A 
ATOM     17  C   UNL d   1     -28.253 -29.794  24.787  0.00  0.00     0.014 A 
ENDBRANCH   5  12
BRANCH   7  18
ATOM     18  O   UNL d   1     -29.022 -26.615  20.697  0.00  0.00    -0.360 OA
ATOM     19  H   UNL d   1     -28.964 -27.107  20.325  0.00  0.00     0.217 HD
ENDBRANCH   7  18
BRANCH  10  20
ATOM     20  O   UNL d   1     -31.301 -25.389  23.112  0.00  0.00    -0.361 OA
ATOM     21  H   UNL d   1     -31.228 -25.118  23.665  0.00  0.00     0.217 HD
ENDBRANCH  10  20
TORSDOF 3
ENDMDL
MODEL 3
REMARK VINA RESULT:    -9.405     44.772     46.510
REMARK INTER + INTRA:          -9.452
REMARK INTER:                 -10.584
REMARK INTRA:                   1.133
REMARK UNBOUND:                 1.053
REMARK  3 active torsions:
REMARK  status: ('A' for Active; 'I' for Inactive)
REMARK    1  A    between atoms: O_2  and  C_10 
REMARK    2  A    between atoms: O_4  and  C_13 
REMARK    3  A    between atoms: C_7  and  C_9 
ROOT
ATOM      1  O   UNL d   1     -45.977   7.068  47.074  0.00  0.00    -0.309 OA
ATOM      2  O   UNL d   1     -48.293   6.695  48.944  0.00  0.00    -0.287 OA
ATOM      3  C   UNL d   1     -47.317   6.123  47.632  0.00  0.00     0.081 A 
ATOM      4  C   UNL d   1     -46.545   6.247  47.009  0.00  0.00     0.095 A 
ATOM      5  C   UNL d   1     -46.181   7.764  47.762  0.00  0.00     0.090 A 
ATOM      6  C   UNL d   1     -47.521   6.819  48.320  0.00  0.00     0.190 A 
ATOM      7  C   UNL d   1     -47.917   5.274  47.576  0.00  0.00     0.085 A 
ATOM      8  C   UNL d   1     -46.953   7.640  48.385  0.00  0.00     0.094 A 
ATOM      9  C   UNL d   1     -46.320   5.531  46.286  0.00  0.00     0.075 A 
ATOM     10  C   UNL d   1     -46.908   4.674  46.212  0.00  0.00     0.071 A 
ATOM     11  C   UNL d   1     -47.711   4.545  46.861  0.00  0.00     0.074 A 
ENDROOT
BRANCH   5  12
ATOM     12  C   UNL d   1     -45.613   8.584  47.827  0.00  0.00    -0.002 A 
ATOM     13  C   UNL d   1     -46.034   9.490  47.772  0.00  0.00     0.014 A 
ATOM     14  C   UNL d   1     -45.465  10.310  47.837  0.00  0.00     0.001 A 
ATOM     15  C   UNL d   1     -44.476  10.225  47.957  0.00  0.00     0.000 A 
ATOM     16  C   UNL d   1     -44.056   9.319  48.013  0.00  0.00     0.001 A 
ATOM     17  C   UNL d   1     -44.624   8.499  47.948  0.00  0.00     0.014 A 
ENDBRANCH   5  12
BRANCH   7  18
ATOM     18  O   UNL d   1     -48.687   5.160  48.204  0.00  0.00    -0.360 OA
ATOM     19  H   UNL d   1     -48.963   5.658  48.449  0.00  0.00     0.217 HD
ENDBRANCH   7  18
BRANCH  10  20
ATOM     20  O   UNL d   1     -46.700   3.980  45.522  0.00  0.00    -0.361 OA
ATOM     21  H   UNL d   1     -46.869   3.391  45.616  0.00  0.00     0.217 HD
ENDBRANCH  10  20
TORSDOF 3
ENDMDL
MODEL 4
REMARK VINA RESULT:    -9.340     42.281     44.007
REMARK INTER + INTRA:          -9.379
REMARK INTER:                 -10.484
REMARK INTRA:                   1.105
REMARK UNBOUND:                 1.053
REMARK  3 active torsions:
REMARK  status: ('A' for Active; 'I' for Inactive)
REMARK    1  A    between atoms: O_2  and  C_10 
REMARK    2  A    between atoms: O_4  and  C_13 
REMARK    3  A    between atoms: C_7  and  C_9 
ROOT
ATOM      1  O   UNL d   1     -45.896   4.960  46.329  0.00  0.00    -0.309 OA
ATOM      2  O   UNL d   1     -43.077   4.812  47.345  0.00  0.00    -0.287 OA
ATOM      3  C   UNL d   1     -44.316   4.253  46.272  0.00  0.00     0.081 A 
ATOM      4  C   UNL d   1     -45.256   4.302  45.933  0.00  0.00     0.095 A 
ATOM      5  C   UNL d   1     -45.597   5.569  47.064  0.00  0.00     0.090 A 
ATOM      6  C   UNL d   1     -44.017   4.862  47.006  0.00  0.00     0.190 A 
ATOM      7  C   UNL d   1     -43.638   3.573  45.869  0.00  0.00     0.085 A 
ATOM      8  C   UNL d   1     -44.657   5.520  47.402  0.00  0.00     0.094 A 
ATOM      9  C   UNL d   1     -45.583   3.675  45.168  0.00  0.00     0.075 A 
ATOM     10  C   UNL d   1     -44.921   2.987  44.751  0.00  0.00     0.071 A 
ATOM     11  C   UNL d   1     -43.943   2.935  45.103  0.00  0.00     0.074 A 
ENDROOT
BRANCH   5  12
ATOM     12  C   UNL d   1     -46.237   6.227  47.460  0.00  0.00    -0.002 A 
ATOM     13  C   UNL d   1     -46.036   7.206  47.422  0.00  0.00     0.014 A 
ATOM     14  C   UNL d   1     -46.676   7.864  47.818  0.00  0.00     0.001 A 
ATOM     15  C   UNL d   1     -47.518   7.543  48.252  0.00  0.00     0.000 A 
ATOM     16  C   UNL d   1     -47.719   6.564  48.290  0.00  0.00     0.001 A 
ATOM     17  C   UNL d   1     -47.079   5.906  47.894  0.00  0.00     0.014 A 
ENDBRANCH   5  12
BRANCH   7  18
ATOM     18  O   UNL d   1     -42.701   3.532  46.215  0.00  0.00    -0.360 OA
ATOM     19  H   UNL d   1     -42.254   3.857  45.936  0.00  0.00     0.217 HD
ENDBRANCH   7  18
BRANCH  10  20
ATOM     20  O   UNL d   1     -45.225   2.379  44.016  0.00  0.00    -0.361 OA
ATOM     21  H   UNL d   1     -45.807   2.414  43.806  0.00  0.00     0.217 HD
ENDBRANCH  10  20
TORSDOF 3
ENDMDL
MODEL 5
REMARK VINA RESULT:    -9.332     44.350     45.937
REMARK INTER + INTRA:          -9.370
REMARK INTER:                 -10.503
REMARK INTRA:                   1.133
REMARK UNBOUND:                 1.053
REMARK  3 active torsions:
REMARK  status: ('A' for Active; 'I' for Inactive)
REMARK    1  A    between atoms: O_2  and  C_10 
REMARK    2  A    between atoms: O_4  and  C_13 
REMARK    3  A    between atoms: C_7  and  C_9 
ROOT
ATOM      1  O   UNL d   1     -46.135   7.049  47.867  0.00  0.00    -0.309 OA
ATOM      2  O   UNL d   1     -45.378   5.405  45.475  0.00  0.00    -0.287 OA
ATOM      3  C   UNL d   1     -46.500   5.787  46.738  0.00  0.00     0.081 A 
ATOM      4  C   UNL d   1     -46.752   6.335  47.536  0.00  0.00     0.095 A 
ATOM      5  C   UNL d   1     -45.266   7.215  47.401  0.00  0.00     0.090 A 
ATOM      6  C   UNL d   1     -45.631   5.953  46.272  0.00  0.00     0.190 A 
ATOM      7  C   UNL d   1     -47.132   5.040  46.381  0.00  0.00     0.085 A 
ATOM      8  C   UNL d   1     -45.014   6.667  46.604  0.00  0.00     0.094 A 
ATOM      9  C   UNL d   1     -47.654   6.174  48.032  0.00  0.00     0.075 A 
ATOM     10  C   UNL d   1     -48.301   5.432  47.692  0.00  0.00     0.071 A 
ATOM     11  C   UNL d   1     -48.039   4.862  46.862  0.00  0.00     0.074 A 
ENDROOT
BRANCH   5  12
ATOM     12  C   UNL d   1     -44.650   7.929  47.733  0.00  0.00    -0.002 A 
ATOM     13  C   UNL d   1     -43.701   7.705  47.959  0.00  0.00     0.014 A 
ATOM     14  C   UNL d   1     -43.085   8.419  48.290  0.00  0.00     0.001 A 
ATOM     15  C   UNL d   1     -43.416   9.357  48.396  0.00  0.00     0.000 A 
ATOM     16  C   UNL d   1     -44.364   9.580  48.171  0.00  0.00     0.001 A 
ATOM     17  C   UNL d   1     -44.981   8.866  47.839  0.00  0.00     0.014 A 
ENDBRANCH   5  12
BRANCH   7  18
ATOM     18  O   UNL d   1     -46.869   4.498  45.583  0.00  0.00    -0.360 OA
ATOM     19  H   UNL d   1     -46.423   4.702  45.203  0.00  0.00     0.217 HD
ENDBRANCH   7  18
BRANCH  10  20
ATOM     20  O   UNL d   1     -49.170   5.269  48.161  0.00  0.00    -0.361 OA
ATOM     21  H   UNL d   1     -49.475   5.742  48.420  0.00  0.00     0.217 HD
ENDBRANCH  10  20
TORSDOF 3
ENDMDL
