MODEL 1
REMARK VINA RESULT:    -6.795      0.000      0.000
REMARK INTER + INTRA:          -6.795
REMARK INTER:                  -6.795
REMARK INTRA:                   0.000
REMARK UNBOUND:                 0.000
REMARK  0 active torsions:
REMARK  status: ('A' for Active; 'I' for Inactive)
ROOT
ATOM      1  O   UNL d   1     -40.645  -2.232  24.190  0.00  0.00    -0.265 OA
ATOM      2  O   UNL d   1     -43.885  -1.010  24.302  0.00  0.00    -0.246 OA
ATOM      3  N   UNL d   1     -42.584  -0.078  24.966  0.00  0.00    -0.286 N 
ATOM      4  N   UNL d   1     -40.057  -0.399  25.193  0.00  0.00    -0.338 N 
ATOM      5  N   UNL d   1     -42.265  -1.621  24.246  0.00  0.00    -0.269 N 
ATOM      6  N   UNL d   1     -41.097   0.757  25.610  0.00  0.00    -0.223 NA
ATOM      7  C   UNL d   1     -40.964  -0.689  24.910  0.00  0.00     0.151 A 
ATOM      8  C   UNL d   1     -41.610   0.029  25.168  0.00  0.00     0.167 A 
ATOM      9  C   UNL d   1     -41.291  -1.514  24.448  0.00  0.00     0.282 A 
ATOM     10  C   UNL d   1     -42.911  -0.903  24.505  0.00  0.00     0.332 A 
ATOM     11  C   UNL d   1     -40.138   0.493  25.625  0.00  0.00     0.212 A 
ATOM     12  C   UNL d   1     -43.230   0.640  25.225  0.00  0.00     0.163 C 
ATOM     13  C   UNL d   1     -39.209  -0.914  25.066  0.00  0.00     0.157 C 
ATOM     14  C   UNL d   1     -42.592  -2.446  23.785  0.00  0.00     0.164 C 
ENDROOT
TORSDOF 0
ENDMDL
MODEL 2
REMARK VINA RESULT:    -6.767      1.051      2.641
REMARK INTER + INTRA:          -6.767
REMARK INTER:                  -6.767
REMARK INTRA:                   0.000
REMARK UNBOUND:                 0.000
REMARK  0 active torsions:
REMARK  status: ('A' for Active; 'I' for Inactive)
ROOT
ATOM      1  O   UNL d   1     -42.588  -1.903  24.244  0.00  0.00    -0.265 OA
ATOM      2  O   UNL d   1     -39.264  -1.120  24.828  0.00  0.00    -0.246 OA
ATOM      3  N   UNL d   1     -40.506   0.019  25.229  0.00  0.00    -0.286 N 
ATOM      4  N   UNL d   1     -43.057   0.054  25.057  0.00  0.00    -0.338 N 
ATOM      5  N   UNL d   1     -40.926  -1.512  24.536  0.00  0.00    -0.269 N 
ATOM      6  N   UNL d   1     -41.940   1.086  25.585  0.00  0.00    -0.223 NA
ATOM      7  C   UNL d   1     -42.167  -0.372  24.938  0.00  0.00     0.151 A 
ATOM      8  C   UNL d   1     -41.473   0.268  25.266  0.00  0.00     0.167 A 
ATOM      9  C   UNL d   1     -41.894  -1.262  24.573  0.00  0.00     0.282 A 
ATOM     10  C   UNL d   1     -40.232  -0.871  24.865  0.00  0.00     0.332 A 
ATOM     11  C   UNL d   1     -42.917   0.954  25.456  0.00  0.00     0.212 A 
ATOM     12  C   UNL d   1     -39.812   0.659  25.558  0.00  0.00     0.163 C 
ATOM     13  C   UNL d   1     -43.939  -0.350  24.817  0.00  0.00     0.157 C 
ATOM     14  C   UNL d   1     -40.653  -2.402  24.171  0.00  0.00     0.164 C 
ENDROOT
TORSDOF 0
ENDMDL
MODEL 3
REMARK VINA RESULT:    -6.713      1.147      2.588
REMARK INTER + INTRA:          -6.713
REMARK INTER:                  -6.713
REMARK INTRA:                   0.000
REMARK UNBOUND:                 0.000
REMARK  0 active torsions:
REMARK  status: ('A' for Active; 'I' for Inactive)
ROOT
ATOM      1  O   UNL d   1     -43.660  -1.448  24.452  0.00  0.00    -0.265 OA
ATOM      2  O   UNL d   1     -42.120   1.415  25.647  0.00  0.00    -0.246 OA
ATOM      3  N   UNL d   1     -41.163   0.057  25.159  0.00  0.00    -0.286 N 
ATOM      4  N   UNL d   1     -41.664  -2.270  24.223  0.00  0.00    -0.338 N 
ATOM      5  N   UNL d   1     -42.890  -0.017  25.050  0.00  0.00    -0.269 N 
ATOM      6  N   UNL d   1     -40.324  -1.463  24.602  0.00  0.00    -0.223 NA
ATOM      7  C   UNL d   1     -41.933  -1.375  24.561  0.00  0.00     0.151 A 
ATOM      8  C   UNL d   1     -41.101  -0.874  24.797  0.00  0.00     0.167 A 
ATOM      9  C   UNL d   1     -42.828  -0.947  24.688  0.00  0.00     0.282 A 
ATOM     10  C   UNL d   1     -42.058   0.485  25.285  0.00  0.00     0.332 A 
ATOM     11  C   UNL d   1     -40.672  -2.324  24.248  0.00  0.00     0.212 A 
ATOM     12  C   UNL d   1     -40.331   0.558  25.394  0.00  0.00     0.163 C 
ATOM     13  C   UNL d   1     -42.283  -2.991  23.911  0.00  0.00     0.157 C 
ATOM     14  C   UNL d   1     -43.785   0.412  25.176  0.00  0.00     0.164 C 
ENDROOT
TORSDOF 0
ENDMDL
MODEL 4
REMARK VINA RESULT:    -6.702      1.219      2.836
REMARK INTER + INTRA:          -6.702
REMARK INTER:                  -6.702
REMARK INTRA:                   0.000
REMARK UNBOUND:                 0.000
REMARK  0 active torsions:
REMARK  status: ('A' for Active; 'I' for Inactive)
ROOT
ATOM      1  O   UNL d   1     -40.611   0.569  25.686  0.00  0.00    -0.265 OA
ATOM      2  O   UNL d   1     -40.517  -2.508  24.097  0.00  0.00    -0.246 OA
ATOM      3  N   UNL d   1     -42.027  -1.682  24.298  0.00  0.00    -0.286 N 
ATOM      4  N   UNL d   1     -42.754   0.536  25.343  0.00  0.00    -0.338 N 
ATOM      5  N   UNL d   1     -40.564  -0.969  24.891  0.00  0.00    -0.269 N 
ATOM      6  N   UNL d   1     -43.514  -0.672  24.599  0.00  0.00    -0.223 NA
ATOM      7  C   UNL d   1     -42.073  -0.144  25.093  0.00  0.00     0.151 A 
ATOM      8  C   UNL d   1     -42.545  -0.894  24.630  0.00  0.00     0.167 A 
ATOM      9  C   UNL d   1     -41.083  -0.181  25.223  0.00  0.00     0.282 A 
ATOM     10  C   UNL d   1     -41.036  -1.720  24.429  0.00  0.00     0.332 A 
ATOM     11  C   UNL d   1     -43.643   0.210  25.039  0.00  0.00     0.212 A 
ATOM     12  C   UNL d   1     -42.499  -2.432  23.835  0.00  0.00     0.163 C 
ATOM     13  C   UNL d   1     -42.576   1.397  25.819  0.00  0.00     0.157 C 
ATOM     14  C   UNL d   1     -39.573  -1.007  25.022  0.00  0.00     0.164 C 
ENDROOT
TORSDOF 0
ENDMDL
MODEL 5
REMARK VINA RESULT:    -6.183     28.200     29.314
REMARK INTER + INTRA:          -6.183
REMARK INTER:                  -6.183
REMARK INTRA:                   0.000
REMARK UNBOUND:                 0.000
REMARK  0 active torsions:
REMARK  status: ('A' for Active; 'I' for Inactive)
ROOT
ATOM      1  O   UNL d   1     -29.251 -29.222  22.391  0.00  0.00    -0.265 OA
ATOM      2  O   UNL d   1     -31.730 -27.794  24.344  0.00  0.00    -0.246 OA
ATOM      3  N   UNL d   1     -30.946 -26.856  23.117  0.00  0.00    -0.286 N 
ATOM      4  N   UNL d   1     -29.106 -27.298  21.397  0.00  0.00    -0.338 N 
ATOM      5  N   UNL d   1     -30.490 -28.508  23.368  0.00  0.00    -0.269 N 
ATOM      6  N   UNL d   1     -30.016 -26.028  21.787  0.00  0.00    -0.223 NA
ATOM      7  C   UNL d   1     -29.707 -27.570  22.141  0.00  0.00     0.151 A 
ATOM      8  C   UNL d   1     -30.272 -26.781  22.383  0.00  0.00     0.167 A 
ATOM      9  C   UNL d   1     -29.816 -28.433  22.633  0.00  0.00     0.282 A 
ATOM     10  C   UNL d   1     -31.055 -27.719  23.610  0.00  0.00     0.332 A 
ATOM     11  C   UNL d   1     -29.297 -26.346  21.178  0.00  0.00     0.212 A 
ATOM     12  C   UNL d   1     -31.511 -26.067  23.360  0.00  0.00     0.163 C 
ATOM     13  C   UNL d   1     -28.428 -27.879  20.947  0.00  0.00     0.157 C 
ATOM     14  C   UNL d   1     -30.600 -29.371  23.860  0.00  0.00     0.164 C 
ENDROOT
TORSDOF 0
ENDMDL
