MODEL 1
REMARK VINA RESULT:    -7.374      0.000      0.000
REMARK INTER + INTRA:          -7.237
REMARK INTER:                  -8.392
REMARK INTRA:                   1.155
REMARK UNBOUND:                 0.999
REMARK  3 active torsions:
REMARK  status: ('A' for Active; 'I' for Inactive)
REMARK    1  A    between atoms: O_2  and  C_10 
REMARK    2  A    between atoms: O_4  and  C_13 
REMARK    3  A    between atoms: C_7  and  C_9 
ROOT
ATOM      1  O   UNL d   1       8.346  21.484  34.172  0.00  0.00    -0.309 OA
ATOM      2  O   UNL d   1       9.121  21.244  31.284  0.00  0.00    -0.287 OA
ATOM      3  C   UNL d   1       9.314  20.755  32.935  0.00  0.00     0.081 A 
ATOM      4  C   UNL d   1       9.055  20.835  33.897  0.00  0.00     0.095 A 
ATOM      5  C   UNL d   1       7.895  22.053  33.484  0.00  0.00     0.090 A 
ATOM      6  C   UNL d   1       8.863  21.324  32.247  0.00  0.00     0.190 A 
ATOM      7  C   UNL d   1      10.050  20.084  32.634  0.00  0.00     0.085 A 
ATOM      8  C   UNL d   1       8.154  21.973  32.522  0.00  0.00     0.094 A 
ATOM      9  C   UNL d   1       9.516  20.250  34.626  0.00  0.00     0.075 A 
ATOM     10  C   UNL d   1      10.255  19.571  34.347  0.00  0.00     0.071 A 
ATOM     11  C   UNL d   1      10.524  19.488  33.345  0.00  0.00     0.074 A 
ENDROOT
BRANCH   5  12
ATOM     12  C   UNL d   1       7.186  22.702  33.759  0.00  0.00    -0.002 A 
ATOM     13  C   UNL d   1       7.377  23.382  34.468  0.00  0.00     0.014 A 
ATOM     14  C   UNL d   1       6.668  24.031  34.743  0.00  0.00     0.001 A 
ATOM     15  C   UNL d   1       5.767  24.001  34.309  0.00  0.00     0.000 A 
ATOM     16  C   UNL d   1       5.576  23.322  33.600  0.00  0.00     0.001 A 
ATOM     17  C   UNL d   1       6.285  22.672  33.326  0.00  0.00     0.014 A 
ENDBRANCH   5  12
BRANCH   7  18
ATOM     18  O   UNL d   1      10.301  20.012  31.668  0.00  0.00    -0.360 OA
ATOM     19  H   UNL d   1      10.132  19.514  31.341  0.00  0.00     0.217 HD
ENDBRANCH   7  18
BRANCH  10  20
ATOM     20  O   UNL d   1      10.704  19.004  35.038  0.00  0.00    -0.361 OA
ATOM     21  H   UNL d   1      10.372  18.596  35.366  0.00  0.00     0.217 HD
ENDBRANCH  10  20
TORSDOF 3
ENDMDL
MODEL 2
REMARK VINA RESULT:    -7.248     21.410     22.854
REMARK INTER + INTRA:          -7.096
REMARK INTER:                  -8.097
REMARK INTRA:                   1.001
REMARK UNBOUND:                 0.999
REMARK  3 active torsions:
REMARK  status: ('A' for Active; 'I' for Inactive)
REMARK    1  A    between atoms: O_2  and  C_10 
REMARK    2  A    between atoms: O_4  and  C_13 
REMARK    3  A    between atoms: C_7  and  C_9 
ROOT
ATOM      1  O   UNL d   1      -6.030  18.995  15.846  0.00  0.00    -0.309 OA
ATOM      2  O   UNL d   1      -5.822  17.703  18.546  0.00  0.00    -0.287 OA
ATOM      3  C   UNL d   1      -5.363  18.958  17.444  0.00  0.00     0.081 A 
ATOM      4  C   UNL d   1      -5.432  19.388  16.544  0.00  0.00     0.095 A 
ATOM      5  C   UNL d   1      -6.559  18.170  16.048  0.00  0.00     0.090 A 
ATOM      6  C   UNL d   1      -5.891  18.133  17.646  0.00  0.00     0.190 A 
ATOM      7  C   UNL d   1      -4.744  19.357  18.181  0.00  0.00     0.085 A 
ATOM      8  C   UNL d   1      -6.489  17.739  16.948  0.00  0.00     0.094 A 
ATOM      9  C   UNL d   1      -4.888  20.248  16.319  0.00  0.00     0.075 A 
ATOM     10  C   UNL d   1      -4.263  20.664  17.041  0.00  0.00     0.071 A 
ATOM     11  C   UNL d   1      -4.190  20.215  17.978  0.00  0.00     0.074 A 
ENDROOT
BRANCH   5  12
ATOM     12  C   UNL d   1      -7.157  17.776  15.351  0.00  0.00    -0.002 A 
ATOM     13  C   UNL d   1      -8.127  18.021  15.327  0.00  0.00     0.014 A 
ATOM     14  C   UNL d   1      -8.725  17.627  14.629  0.00  0.00     0.001 A 
ATOM     15  C   UNL d   1      -8.354  16.989  13.955  0.00  0.00     0.000 A 
ATOM     16  C   UNL d   1      -7.384  16.744  13.978  0.00  0.00     0.001 A 
ATOM     17  C   UNL d   1      -6.786  17.138  14.676  0.00  0.00     0.014 A 
ENDBRANCH   5  12
BRANCH   7  18
ATOM     18  O   UNL d   1      -4.682  18.917  19.077  0.00  0.00    -0.360 OA
ATOM     19  H   UNL d   1      -4.560  18.311  19.117  0.00  0.00     0.217 HD
ENDBRANCH   7  18
BRANCH  10  20
ATOM     20  O   UNL d   1      -3.736  21.488  16.835  0.00  0.00    -0.361 OA
ATOM     21  H   UNL d   1      -3.193  21.443  16.539  0.00  0.00     0.217 HD
ENDBRANCH  10  20
TORSDOF 3
ENDMDL
MODEL 3
REMARK VINA RESULT:    -7.169      4.136      6.615
REMARK INTER + INTRA:          -7.007
REMARK INTER:                  -8.309
REMARK INTRA:                   1.302
REMARK UNBOUND:                 0.999
REMARK  3 active torsions:
REMARK  status: ('A' for Active; 'I' for Inactive)
REMARK    1  A    between atoms: O_2  and  C_10 
REMARK    2  A    between atoms: O_4  and  C_13 
REMARK    3  A    between atoms: C_7  and  C_9 
ROOT
ATOM      1  O   UNL d   1       5.144  24.217  34.156  0.00  0.00    -0.309 OA
ATOM      2  O   UNL d   1       3.504  26.377  35.439  0.00  0.00    -0.287 OA
ATOM      3  C   UNL d   1       3.769  25.271  34.133  0.00  0.00     0.081 A 
ATOM      4  C   UNL d   1       4.316  24.551  33.706  0.00  0.00     0.095 A 
ATOM      5  C   UNL d   1       5.425  24.603  35.035  0.00  0.00     0.090 A 
ATOM      6  C   UNL d   1       4.051  25.657  35.012  0.00  0.00     0.190 A 
ATOM      7  C   UNL d   1       2.905  25.628  33.676  0.00  0.00     0.085 A 
ATOM      8  C   UNL d   1       4.879  25.323  35.462  0.00  0.00     0.094 A 
ATOM      9  C   UNL d   1       4.036  24.138  32.791  0.00  0.00     0.075 A 
ATOM     10  C   UNL d   1       3.174  24.481  32.316  0.00  0.00     0.071 A 
ATOM     11  C   UNL d   1       2.605  25.231  32.761  0.00  0.00     0.074 A 
ENDROOT
BRANCH   5  12
ATOM     12  C   UNL d   1       6.253  24.270  35.485  0.00  0.00    -0.002 A 
ATOM     13  C   UNL d   1       6.306  24.250  36.484  0.00  0.00     0.014 A 
ATOM     14  C   UNL d   1       7.134  23.916  36.934  0.00  0.00     0.001 A 
ATOM     15  C   UNL d   1       7.909  23.602  36.387  0.00  0.00     0.000 A 
ATOM     16  C   UNL d   1       7.857  23.622  35.388  0.00  0.00     0.001 A 
ATOM     17  C   UNL d   1       7.029  23.956  34.938  0.00  0.00     0.014 A 
ENDBRANCH   5  12
BRANCH   7  18
ATOM     18  O   UNL d   1       2.366  26.349  34.113  0.00  0.00    -0.360 OA
ATOM     19  H   UNL d   1       1.782  26.451  33.933  0.00  0.00     0.217 HD
ENDBRANCH   7  18
BRANCH  10  20
ATOM     20  O   UNL d   1       2.896  24.092  31.437  0.00  0.00    -0.361 OA
ATOM     21  H   UNL d   1       2.449  23.664  31.416  0.00  0.00     0.217 HD
ENDBRANCH  10  20
TORSDOF 3
ENDMDL
MODEL 4
REMARK VINA RESULT:    -7.141     20.770     22.355
REMARK INTER + INTRA:          -6.976
REMARK INTER:                  -8.064
REMARK INTRA:                   1.088
REMARK UNBOUND:                 0.999
REMARK  3 active torsions:
REMARK  status: ('A' for Active; 'I' for Inactive)
REMARK    1  A    between atoms: O_2  and  C_10 
REMARK    2  A    between atoms: O_4  and  C_13 
REMARK    3  A    between atoms: C_7  and  C_9 
ROOT
ATOM      1  O   UNL d   1      17.224  13.104  15.792  0.00  0.00    -0.309 OA
ATOM      2  O   UNL d   1      16.985  13.427  12.819  0.00  0.00    -0.287 OA
ATOM      3  C   UNL d   1      16.244  13.192  14.367  0.00  0.00     0.081 A 
ATOM      4  C   UNL d   1      16.323  13.085  15.358  0.00  0.00     0.095 A 
ATOM      5  C   UNL d   1      18.045  13.231  15.236  0.00  0.00     0.090 A 
ATOM      6  C   UNL d   1      17.065  13.319  13.810  0.00  0.00     0.190 A 
ATOM      7  C   UNL d   1      15.313  13.174  13.901  0.00  0.00     0.085 A 
ATOM      8  C   UNL d   1      17.965  13.339  14.245  0.00  0.00     0.094 A 
ATOM      9  C   UNL d   1      15.477  12.952  15.951  0.00  0.00     0.075 A 
ATOM     10  C   UNL d   1      14.536  12.930  15.506  0.00  0.00     0.071 A 
ATOM     11  C   UNL d   1      14.453  13.043  14.474  0.00  0.00     0.074 A 
ENDROOT
BRANCH   5  12
ATOM     12  C   UNL d   1      18.945  13.250  15.670  0.00  0.00    -0.002 A 
ATOM     13  C   UNL d   1      19.509  14.075  15.616  0.00  0.00     0.014 A 
ATOM     14  C   UNL d   1      20.409  14.094  16.051  0.00  0.00     0.001 A 
ATOM     15  C   UNL d   1      20.746  13.289  16.538  0.00  0.00     0.000 A 
ATOM     16  C   UNL d   1      20.183  12.464  16.592  0.00  0.00     0.001 A 
ATOM     17  C   UNL d   1      19.282  12.445  16.158  0.00  0.00     0.014 A 
ENDBRANCH   5  12
BRANCH   7  18
ATOM     18  O   UNL d   1      15.245  13.283  12.909  0.00  0.00    -0.360 OA
ATOM     19  H   UNL d   1      15.582  12.923  12.534  0.00  0.00     0.217 HD
ENDBRANCH   7  18
BRANCH  10  20
ATOM     20  O   UNL d   1      13.717  12.803  16.066  0.00  0.00    -0.361 OA
ATOM     21  H   UNL d   1      13.427  12.255  16.071  0.00  0.00     0.217 HD
ENDBRANCH  10  20
TORSDOF 3
ENDMDL
MODEL 5
REMARK VINA RESULT:    -7.133      3.575      6.545
REMARK INTER + INTRA:          -6.967
REMARK INTER:                  -8.398
REMARK INTRA:                   1.430
REMARK UNBOUND:                 0.999
REMARK  3 active torsions:
REMARK  status: ('A' for Active; 'I' for Inactive)
REMARK    1  A    between atoms: O_2  and  C_10 
REMARK    2  A    between atoms: O_4  and  C_13 
REMARK    3  A    between atoms: C_7  and  C_9 
ROOT
ATOM      1  O   UNL d   1       5.195  24.720  34.424  0.00  0.00    -0.309 OA
ATOM      2  O   UNL d   1       3.141  24.116  32.322  0.00  0.00    -0.287 OA
ATOM      3  C   UNL d   1       3.681  25.074  33.660  0.00  0.00     0.081 A 
ATOM      4  C   UNL d   1       4.365  25.276  34.361  0.00  0.00     0.095 A 
ATOM      5  C   UNL d   1       5.340  23.964  33.786  0.00  0.00     0.090 A 
ATOM      6  C   UNL d   1       3.826  24.317  33.022  0.00  0.00     0.190 A 
ATOM      7  C   UNL d   1       2.812  25.644  33.582  0.00  0.00     0.085 A 
ATOM      8  C   UNL d   1       4.655  23.762  33.085  0.00  0.00     0.094 A 
ATOM      9  C   UNL d   1       4.229  26.060  35.032  0.00  0.00     0.075 A 
ATOM     10  C   UNL d   1       3.367  26.643  34.972  0.00  0.00     0.071 A 
ATOM     11  C   UNL d   1       2.655  26.433  34.243  0.00  0.00     0.074 A 
ENDROOT
BRANCH   5  12
ATOM     12  C   UNL d   1       6.169  23.409  33.849  0.00  0.00    -0.002 A 
ATOM     13  C   UNL d   1       6.815  23.559  34.597  0.00  0.00     0.014 A 
ATOM     14  C   UNL d   1       7.645  23.004  34.660  0.00  0.00     0.001 A 
ATOM     15  C   UNL d   1       7.828  22.299  33.975  0.00  0.00     0.000 A 
ATOM     16  C   UNL d   1       7.181  22.148  33.227  0.00  0.00     0.001 A 
ATOM     17  C   UNL d   1       6.352  22.703  33.164  0.00  0.00     0.014 A 
ENDBRANCH   5  12
BRANCH   7  18
ATOM     18  O   UNL d   1       2.135  25.433  32.878  0.00  0.00    -0.360 OA
ATOM     19  H   UNL d   1       1.939  25.878  32.494  0.00  0.00     0.217 HD
ENDBRANCH   7  18
BRANCH  10  20
ATOM     20  O   UNL d   1       3.226  27.399  35.612  0.00  0.00    -0.361 OA
ATOM     21  H   UNL d   1       2.995  27.288  36.176  0.00  0.00     0.217 HD
ENDBRANCH  10  20
TORSDOF 3
ENDMDL
