MODEL 1
REMARK VINA RESULT:    -7.942      0.000      0.000
REMARK INTER + INTRA:          -4.980
REMARK INTER:                 -10.309
REMARK INTRA:                   5.329
REMARK UNBOUND:                 5.284
REMARK  6 active torsions:
REMARK  status: ('A' for Active; 'I' for Inactive)
REMARK    1  A    between atoms: O_2  and  C_15 
REMARK    2  A    between atoms: O_3  and  C_17 
REMARK    3  A    between atoms: O_4  and  C_11 
REMARK    4  A    between atoms: O_6  and  C_22 
REMARK    5  A    between atoms: O_7  and  C_20 
REMARK    6  A    between atoms: C_10  and  C_13 
ROOT
ATOM      1  O   UNL d   1       6.468  23.001  33.187  0.00  0.00    -0.309 OA
ATOM      2  O   UNL d   1       7.005  24.232  35.946  0.00  0.00    -0.287 OA
ATOM      3  C   UNL d   1       5.966  24.055  34.525  0.00  0.00     0.084 A 
ATOM      4  C   UNL d   1       5.788  23.656  33.626  0.00  0.00     0.096 A 
ATOM      5  C   UNL d   1       7.347  22.759  33.691  0.00  0.00     0.090 A 
ATOM      6  C   UNL d   1       5.303  24.683  34.934  0.00  0.00     0.119 A 
ATOM      7  C   UNL d   1       6.837  23.827  35.047  0.00  0.00     0.190 A 
ATOM      8  C   UNL d   1       4.947  23.884  33.135  0.00  0.00     0.078 A 
ATOM      9  C   UNL d   1       4.462  24.911  34.444  0.00  0.00     0.136 A 
ATOM     10  C   UNL d   1       7.533  23.175  34.629  0.00  0.00     0.094 A 
ATOM     11  C   UNL d   1       4.284  24.511  33.544  0.00  0.00     0.107 A 
ENDROOT
BRANCH   5  12
ATOM     12  C   UNL d   1       8.007  22.132  33.280  0.00  0.00     0.001 A 
ATOM     13  C   UNL d   1       8.097  22.083  32.285  0.00  0.00     0.053 A 
ATOM     14  C   UNL d   1       8.758  21.456  31.872  0.00  0.00     0.099 A 
ATOM     15  C   UNL d   1       9.329  20.877  32.455  0.00  0.00     0.101 A 
ATOM     16  C   UNL d   1       9.238  20.925  33.450  0.00  0.00     0.040 A 
ATOM     17  C   UNL d   1       8.578  21.553  33.862  0.00  0.00     0.017 A 
BRANCH  14  18
ATOM     18  O   UNL d   1       8.849  21.406  30.878  0.00  0.00    -0.358 OA
ATOM     19  H   UNL d   1       8.451  21.711  30.514  0.00  0.00     0.217 HD
ENDBRANCH  14  18
BRANCH  15  20
ATOM     20  O   UNL d   1       9.989  20.249  32.043  0.00  0.00    -0.353 OA
ATOM     21  C   UNL d   1      10.566  19.677  32.626  0.00  0.00     0.210 C 
ENDBRANCH  15  20
ENDBRANCH   5  12
BRANCH   6  22
ATOM     22  O   UNL d   1       5.481  25.082  35.833  0.00  0.00    -0.357 OA
ATOM     23  H   UNL d   1       5.207  24.846  36.337  0.00  0.00     0.218 HD
ENDBRANCH   6  22
BRANCH  11  24
ATOM     24  O   UNL d   1       3.443  24.740  33.054  0.00  0.00    -0.353 OA
ATOM     25  C   UNL d   1       3.200  24.244  32.220  0.00  0.00     0.210 C 
ENDBRANCH  11  24
BRANCH   9  26
ATOM     26  O   UNL d   1       3.799  25.538  34.853  0.00  0.00    -0.351 OA
ATOM     27  C   UNL d   1       3.966  26.524  34.834  0.00  0.00     0.210 C 
ENDBRANCH   9  26
TORSDOF 6
ENDMDL
MODEL 2
REMARK VINA RESULT:    -7.590      1.287      6.236
REMARK INTER + INTRA:          -4.524
REMARK INTER:                  -9.706
REMARK INTRA:                   5.181
REMARK UNBOUND:                 5.284
REMARK  6 active torsions:
REMARK  status: ('A' for Active; 'I' for Inactive)
REMARK    1  A    between atoms: O_2  and  C_15 
REMARK    2  A    between atoms: O_3  and  C_17 
REMARK    3  A    between atoms: O_4  and  C_11 
REMARK    4  A    between atoms: O_6  and  C_22 
REMARK    5  A    between atoms: O_7  and  C_20 
REMARK    6  A    between atoms: C_10  and  C_13 
ROOT
ATOM      1  O   UNL d   1       8.035  21.700  34.213  0.00  0.00    -0.309 OA
ATOM      2  O   UNL d   1       9.017  21.809  31.307  0.00  0.00    -0.287 OA
ATOM      3  C   UNL d   1       9.089  21.087  32.921  0.00  0.00     0.084 A 
ATOM      4  C   UNL d   1       8.772  21.048  33.868  0.00  0.00     0.096 A 
ATOM      5  C   UNL d   1       7.624  22.400  33.561  0.00  0.00     0.090 A 
ATOM      6  C   UNL d   1       9.797  20.455  32.605  0.00  0.00     0.119 A 
ATOM      7  C   UNL d   1       8.692  21.779  32.252  0.00  0.00     0.190 A 
ATOM      8  C   UNL d   1       9.162  20.378  34.500  0.00  0.00     0.078 A 
ATOM      9  C   UNL d   1      10.187  19.785  33.236  0.00  0.00     0.136 A 
ATOM     10  C   UNL d   1       7.954  22.440  32.574  0.00  0.00     0.094 A 
ATOM     11  C   UNL d   1       9.870  19.746  34.183  0.00  0.00     0.107 A 
ENDROOT
BRANCH   5  12
ATOM     12  C   UNL d   1       6.916  23.030  33.881  0.00  0.00     0.001 A 
ATOM     13  C   UNL d   1       6.047  23.095  33.391  0.00  0.00     0.053 A 
ATOM     14  C   UNL d   1       5.339  23.725  33.710  0.00  0.00     0.099 A 
ATOM     15  C   UNL d   1       5.501  24.291  34.519  0.00  0.00     0.101 A 
ATOM     16  C   UNL d   1       6.370  24.226  35.009  0.00  0.00     0.040 A 
ATOM     17  C   UNL d   1       7.078  23.596  34.689  0.00  0.00     0.017 A 
BRANCH  14  18
ATOM     18  O   UNL d   1       4.469  23.791  33.221  0.00  0.00    -0.358 OA
ATOM     19  H   UNL d   1       4.364  23.436  32.724  0.00  0.00     0.217 HD
ENDBRANCH  14  18
BRANCH  15  20
ATOM     20  O   UNL d   1       4.793  24.921  34.839  0.00  0.00    -0.353 OA
ATOM     21  C   UNL d   1       4.937  25.454  35.672  0.00  0.00     0.210 C 
ENDBRANCH  15  20
ENDBRANCH   5  12
BRANCH   6  22
ATOM     22  O   UNL d   1      10.114  20.493  31.657  0.00  0.00    -0.357 OA
ATOM     23  H   UNL d   1      10.591  20.859  31.504  0.00  0.00     0.218 HD
ENDBRANCH   6  22
BRANCH  11  24
ATOM     24  O   UNL d   1      10.260  19.076  34.815  0.00  0.00    -0.353 OA
ATOM     25  C   UNL d   1       9.813  18.894  35.690  0.00  0.00     0.210 C 
ENDBRANCH  11  24
BRANCH   9  26
ATOM     26  O   UNL d   1      10.895  19.153  32.920  0.00  0.00    -0.351 OA
ATOM     27  C   UNL d   1      10.650  18.381  32.333  0.00  0.00     0.210 C 
ENDBRANCH   9  26
TORSDOF 6
ENDMDL
MODEL 3
REMARK VINA RESULT:    -7.549      1.266      5.585
REMARK INTER + INTRA:          -4.472
REMARK INTER:                  -9.591
REMARK INTRA:                   5.120
REMARK UNBOUND:                 5.284
REMARK  6 active torsions:
REMARK  status: ('A' for Active; 'I' for Inactive)
REMARK    1  A    between atoms: O_2  and  C_15 
REMARK    2  A    between atoms: O_3  and  C_17 
REMARK    3  A    between atoms: O_4  and  C_11 
REMARK    4  A    between atoms: O_6  and  C_22 
REMARK    5  A    between atoms: O_7  and  C_20 
REMARK    6  A    between atoms: C_10  and  C_13 
ROOT
ATOM      1  O   UNL d   1       6.172  23.453  33.186  0.00  0.00    -0.309 OA
ATOM      2  O   UNL d   1       7.045  23.589  36.126  0.00  0.00    -0.287 OA
ATOM      3  C   UNL d   1       7.281  22.966  34.486  0.00  0.00     0.084 A 
ATOM      4  C   UNL d   1       7.000  22.920  33.528  0.00  0.00     0.096 A 
ATOM      5  C   UNL d   1       5.631  24.043  33.853  0.00  0.00     0.090 A 
ATOM      6  C   UNL d   1       8.077  22.449  34.799  0.00  0.00     0.119 A 
ATOM      7  C   UNL d   1       6.755  23.550  35.169  0.00  0.00     0.190 A 
ATOM      8  C   UNL d   1       7.515  22.355  32.882  0.00  0.00     0.078 A 
ATOM      9  C   UNL d   1       8.592  21.884  34.154  0.00  0.00     0.136 A 
ATOM     10  C   UNL d   1       5.925  24.092  34.851  0.00  0.00     0.094 A 
ATOM     11  C   UNL d   1       8.311  21.838  33.195  0.00  0.00     0.107 A 
ENDROOT
BRANCH   5  12
ATOM     12  C   UNL d   1       4.836  24.559  33.536  0.00  0.00     0.001 A 
ATOM     13  C   UNL d   1       4.043  24.077  33.163  0.00  0.00     0.053 A 
ATOM     14  C   UNL d   1       3.247  24.593  32.846  0.00  0.00     0.099 A 
ATOM     15  C   UNL d   1       3.244  25.591  32.903  0.00  0.00     0.101 A 
ATOM     16  C   UNL d   1       4.036  26.074  33.277  0.00  0.00     0.040 A 
ATOM     17  C   UNL d   1       4.832  25.557  33.593  0.00  0.00     0.017 A 
BRANCH  14  18
ATOM     18  O   UNL d   1       2.454  24.111  32.472  0.00  0.00    -0.358 OA
ATOM     19  H   UNL d   1       2.381  24.063  31.859  0.00  0.00     0.217 HD
ENDBRANCH  14  18
BRANCH  15  20
ATOM     20  O   UNL d   1       2.448  26.107  32.587  0.00  0.00    -0.353 OA
ATOM     21  C   UNL d   1       2.418  27.100  32.701  0.00  0.00     0.210 C 
ENDBRANCH  15  20
ENDBRANCH   5  12
BRANCH   6  22
ATOM     22  O   UNL d   1       8.359  22.495  35.758  0.00  0.00    -0.357 OA
ATOM     23  H   UNL d   1       8.731  22.953  35.950  0.00  0.00     0.218 HD
ENDBRANCH   6  22
BRANCH  11  24
ATOM     24  O   UNL d   1       8.826  21.273  32.550  0.00  0.00    -0.353 OA
ATOM     25  C   UNL d   1       8.831  21.505  31.577  0.00  0.00     0.210 C 
ENDBRANCH  11  24
BRANCH   9  26
ATOM     26  O   UNL d   1       9.388  21.367  34.467  0.00  0.00    -0.351 OA
ATOM     27  C   UNL d   1       9.264  20.488  34.927  0.00  0.00     0.210 C 
ENDBRANCH   9  26
TORSDOF 6
ENDMDL
MODEL 4
REMARK VINA RESULT:    -7.547      0.994      2.241
REMARK INTER + INTRA:          -4.469
REMARK INTER:                  -9.717
REMARK INTRA:                   5.248
REMARK UNBOUND:                 5.284
REMARK  6 active torsions:
REMARK  status: ('A' for Active; 'I' for Inactive)
REMARK    1  A    between atoms: O_2  and  C_15 
REMARK    2  A    between atoms: O_3  and  C_17 
REMARK    3  A    between atoms: O_4  and  C_11 
REMARK    4  A    between atoms: O_6  and  C_22 
REMARK    5  A    between atoms: O_7  and  C_20 
REMARK    6  A    between atoms: C_10  and  C_13 
ROOT
ATOM      1  O   UNL d   1       7.437  23.238  34.505  0.00  0.00    -0.309 OA
ATOM      2  O   UNL d   1       4.735  23.552  33.085  0.00  0.00    -0.287 OA
ATOM      3  C   UNL d   1       5.826  23.981  34.410  0.00  0.00     0.084 A 
ATOM      4  C   UNL d   1       6.706  23.881  34.876  0.00  0.00     0.096 A 
ATOM      5  C   UNL d   1       7.250  22.692  33.638  0.00  0.00     0.090 A 
ATOM      6  C   UNL d   1       5.134  24.601  34.777  0.00  0.00     0.119 A 
ATOM      7  C   UNL d   1       5.618  23.445  33.542  0.00  0.00     0.190 A 
ATOM      8  C   UNL d   1       6.892  24.402  35.709  0.00  0.00     0.078 A 
ATOM      9  C   UNL d   1       5.320  25.122  35.610  0.00  0.00     0.136 A 
ATOM     10  C   UNL d   1       6.334  22.796  33.153  0.00  0.00     0.094 A 
ATOM     11  C   UNL d   1       6.199  25.023  36.076  0.00  0.00     0.107 A 
ENDROOT
BRANCH   5  12
ATOM     12  C   UNL d   1       7.945  22.073  33.274  0.00  0.00     0.001 A 
ATOM     13  C   UNL d   1       8.086  22.006  32.286  0.00  0.00     0.053 A 
ATOM     14  C   UNL d   1       8.781  21.386  31.921  0.00  0.00     0.099 A 
ATOM     15  C   UNL d   1       9.335  20.833  32.544  0.00  0.00     0.101 A 
ATOM     16  C   UNL d   1       9.193  20.900  33.532  0.00  0.00     0.040 A 
ATOM     17  C   UNL d   1       8.498  21.520  33.896  0.00  0.00     0.017 A 
BRANCH  14  18
ATOM     18  O   UNL d   1       8.923  21.319  30.933  0.00  0.00    -0.358 OA
ATOM     19  H   UNL d   1       8.646  21.720  30.552  0.00  0.00     0.217 HD
ENDBRANCH  14  18
BRANCH  15  20
ATOM     20  O   UNL d   1      10.029  20.214  32.180  0.00  0.00    -0.353 OA
ATOM     21  C   UNL d   1      10.561  19.638  32.800  0.00  0.00     0.210 C 
ENDBRANCH  15  20
ENDBRANCH   5  12
BRANCH   6  22
ATOM     22  O   UNL d   1       4.254  24.701  34.311  0.00  0.00    -0.357 OA
ATOM     23  H   UNL d   1       3.967  24.202  34.081  0.00  0.00     0.218 HD
ENDBRANCH   6  22
BRANCH  11  24
ATOM     24  O   UNL d   1       6.386  25.544  36.909  0.00  0.00    -0.353 OA
ATOM     25  C   UNL d   1       7.228  25.381  37.422  0.00  0.00     0.210 C 
ENDBRANCH  11  24
BRANCH   9  26
ATOM     26  O   UNL d   1       4.627  25.743  35.977  0.00  0.00    -0.351 OA
ATOM     27  C   UNL d   1       4.467  26.628  35.540  0.00  0.00     0.210 C 
ENDBRANCH   9  26
TORSDOF 6
ENDMDL
MODEL 5
REMARK VINA RESULT:    -7.074     21.927     24.151
REMARK INTER + INTRA:          -3.857
REMARK INTER:                  -8.905
REMARK INTRA:                   5.048
REMARK UNBOUND:                 5.284
REMARK  6 active torsions:
REMARK  status: ('A' for Active; 'I' for Inactive)
REMARK    1  A    between atoms: O_2  and  C_15 
REMARK    2  A    between atoms: O_3  and  C_17 
REMARK    3  A    between atoms: O_4  and  C_11 
REMARK    4  A    between atoms: O_6  and  C_22 
REMARK    5  A    between atoms: O_7  and  C_20 
REMARK    6  A    between atoms: C_10  and  C_13 
ROOT
ATOM      1  O   UNL d   1      18.244  13.624  15.737  0.00  0.00    -0.309 OA
ATOM      2  O   UNL d   1      18.728  12.306  13.007  0.00  0.00    -0.287 OA
ATOM      3  C   UNL d   1      17.614  12.821  14.282  0.00  0.00     0.084 A 
ATOM      4  C   UNL d   1      17.453  13.249  15.171  0.00  0.00     0.096 A 
ATOM      5  C   UNL d   1      19.216  13.550  15.371  0.00  0.00     0.090 A 
ATOM      6  C   UNL d   1      16.845  12.466  13.751  0.00  0.00     0.119 A 
ATOM      7  C   UNL d   1      18.578  12.737  13.897  0.00  0.00     0.190 A 
ATOM      8  C   UNL d   1      16.522  13.323  15.529  0.00  0.00     0.078 A 
ATOM      9  C   UNL d   1      15.914  12.540  14.109  0.00  0.00     0.136 A 
ATOM     10  C   UNL d   1      19.385  13.104  14.444  0.00  0.00     0.094 A 
ATOM     11  C   UNL d   1      15.752  12.968  14.998  0.00  0.00     0.107 A 
ENDROOT
BRANCH   5  12
ATOM     12  C   UNL d   1      19.983  13.906  15.904  0.00  0.00     0.001 A 
ATOM     13  C   UNL d   1      20.403  14.778  15.655  0.00  0.00     0.053 A 
ATOM     14  C   UNL d   1      21.171  15.135  16.188  0.00  0.00     0.099 A 
ATOM     15  C   UNL d   1      21.517  14.618  16.972  0.00  0.00     0.101 A 
ATOM     16  C   UNL d   1      21.097  13.746  17.221  0.00  0.00     0.040 A 
ATOM     17  C   UNL d   1      20.330  13.390  16.687  0.00  0.00     0.017 A 
BRANCH  14  18
ATOM     18  O   UNL d   1      21.592  16.007  15.940  0.00  0.00    -0.358 OA
ATOM     19  H   UNL d   1      21.552  16.216  15.358  0.00  0.00     0.217 HD
ENDBRANCH  14  18
BRANCH  15  20
ATOM     20  O   UNL d   1      22.284  14.974  17.506  0.00  0.00    -0.353 OA
ATOM     21  C   UNL d   1      22.547  14.529  18.361  0.00  0.00     0.210 C 
ENDBRANCH  15  20
ENDBRANCH   5  12
BRANCH   6  22
ATOM     22  O   UNL d   1      17.007  12.037  12.862  0.00  0.00    -0.357 OA
ATOM     23  H   UNL d   1      16.697  11.524  12.705  0.00  0.00     0.218 HD
ENDBRANCH   6  22
BRANCH  11  24
ATOM     24  O   UNL d   1      14.821  13.042  15.355  0.00  0.00    -0.353 OA
ATOM     25  C   UNL d   1      14.668  13.379  16.284  0.00  0.00     0.210 C 
ENDBRANCH  11  24
BRANCH   9  26
ATOM     26  O   UNL d   1      15.145  12.185  13.577  0.00  0.00    -0.351 OA
ATOM     27  C   UNL d   1      14.954  11.203  13.568  0.00  0.00     0.210 C 
ENDBRANCH   9  26
TORSDOF 6
ENDMDL
