MODEL 1
REMARK VINA RESULT:   -10.015      0.000      0.000
REMARK INTER + INTRA:          -8.201
REMARK INTER:                 -11.186
REMARK INTRA:                   2.984
REMARK UNBOUND:                 2.985
REMARK  2 active torsions:
REMARK  status: ('A' for Active; 'I' for Inactive)
REMARK    1  A    between atoms: O_3  and  C_17 
REMARK    2  A    between atoms: O_4  and  C_21 
ROOT
ATOM      1  O   UNL d   1     -10.754 -30.983  -7.895  0.00  0.00    -0.323 OA
ATOM      2  O   UNL d   1     -11.462 -32.487  -7.681  0.00  0.00    -0.323 OA
ATOM      3  N   UNL d   1     -10.826 -30.683  -3.374  0.00  0.00    -0.400 N 
ATOM      4  C   UNL d   1     -10.629 -30.350  -4.296  0.00  0.00     0.117 A 
ATOM      5  C   UNL d   1     -10.189 -29.418  -4.445  0.00  0.00     0.069 A 
ATOM      6  C   UNL d   1     -10.853 -30.914  -5.091  0.00  0.00    -0.026 A 
ATOM      7  C   UNL d   1     -11.249 -31.581  -3.247  0.00  0.00     0.122 A 
ATOM      8  C   UNL d   1     -10.598 -30.107  -2.538  0.00  0.00     0.160 A 
ATOM      9  C   UNL d   1     -11.474 -32.145  -4.041  0.00  0.00     0.058 A 
ATOM     10  C   UNL d   1     -11.276 -31.812  -4.963  0.00  0.00    -0.045 A 
ATOM     11  C   UNL d   1      -9.951 -28.824  -3.623  0.00  0.00    -0.045 A 
ATOM     12  C   UNL d   1     -10.157 -29.171  -2.663  0.00  0.00     0.002 A 
ATOM     13  C   UNL d   1     -10.641 -30.554  -6.045  0.00  0.00     0.049 A 
ATOM     14  C   UNL d   1     -11.516 -32.411  -5.781  0.00  0.00     0.047 A 
ATOM     15  C   UNL d   1      -9.919 -28.571  -1.791  0.00  0.00     0.110 A 
ATOM     16  C   UNL d   1      -9.493 -27.853  -3.778  0.00  0.00     0.011 A 
ATOM     17  C   UNL d   1     -10.873 -31.136  -6.878  0.00  0.00     0.105 A 
ATOM     18  C   UNL d   1     -11.313 -32.070  -6.745  0.00  0.00     0.105 A 
ATOM     19  C   UNL d   1      -9.461 -27.596  -1.921  0.00  0.00     0.102 A 
ATOM     20  C   UNL d   1      -9.246 -27.235  -2.921  0.00  0.00     0.040 A 
ATOM     21  C   UNL d   1     -11.118 -31.816  -8.390  0.00  0.00     0.352 A 
ENDROOT
BRANCH  15  22
ATOM     22  O   UNL d   1     -10.121 -28.913  -0.873  0.00  0.00    -0.352 OA
ATOM     23  C   UNL d   1     -11.007 -28.721  -0.451  0.00  0.00     0.210 C 
ENDBRANCH  15  22
BRANCH  19  24
ATOM     24  O   UNL d   1      -9.237 -27.035  -1.124  0.00  0.00    -0.353 OA
ATOM     25  C   UNL d   1      -8.547 -26.315  -1.197  0.00  0.00     0.210 C 
ENDBRANCH  19  24
TORSDOF 2
ENDMDL
MODEL 2
REMARK VINA RESULT:    -9.482      0.972      5.602
REMARK INTER + INTRA:          -7.605
REMARK INTER:                 -10.584
REMARK INTRA:                   2.978
REMARK UNBOUND:                 2.985
REMARK  2 active torsions:
REMARK  status: ('A' for Active; 'I' for Inactive)
REMARK    1  A    between atoms: O_3  and  C_17 
REMARK    2  A    between atoms: O_4  and  C_21 
ROOT
ATOM      1  O   UNL d   1      -8.200 -27.664  -1.929  0.00  0.00    -0.323 OA
ATOM      2  O   UNL d   1      -8.809 -27.871  -0.380  0.00  0.00    -0.323 OA
ATOM      3  N   UNL d   1     -11.190 -30.838  -3.162  0.00  0.00    -0.400 N 
ATOM      4  C   UNL d   1     -10.458 -30.176  -3.328  0.00  0.00     0.117 A 
ATOM      5  C   UNL d   1     -10.070 -30.036  -4.284  0.00  0.00     0.069 A 
ATOM      6  C   UNL d   1     -10.091 -29.637  -2.570  0.00  0.00    -0.026 A 
ATOM      7  C   UNL d   1     -11.553 -30.961  -2.239  0.00  0.00     0.122 A 
ATOM      8  C   UNL d   1     -11.582 -31.405  -3.942  0.00  0.00     0.160 A 
ATOM      9  C   UNL d   1     -11.185 -30.422  -1.481  0.00  0.00     0.058 A 
ATOM     10  C   UNL d   1     -10.454 -29.761  -1.646  0.00  0.00    -0.045 A 
ATOM     11  C   UNL d   1     -10.448 -30.593  -5.079  0.00  0.00    -0.045 A 
ATOM     12  C   UNL d   1     -11.209 -31.282  -4.907  0.00  0.00     0.002 A 
ATOM     13  C   UNL d   1      -9.329 -28.951  -2.757  0.00  0.00     0.049 A 
ATOM     14  C   UNL d   1     -10.081 -29.207  -0.847  0.00  0.00     0.047 A 
ATOM     15  C   UNL d   1     -11.618 -31.874  -5.718  0.00  0.00     0.110 A 
ATOM     16  C   UNL d   1     -10.043 -30.448  -6.075  0.00  0.00     0.011 A 
ATOM     17  C   UNL d   1      -8.941 -28.386  -1.973  0.00  0.00     0.105 A 
ATOM     18  C   UNL d   1      -9.319 -28.515  -1.011  0.00  0.00     0.105 A 
ATOM     19  C   UNL d   1     -11.229 -31.746  -6.723  0.00  0.00     0.102 A 
ATOM     20  C   UNL d   1     -10.436 -31.028  -6.903  0.00  0.00     0.040 A 
ATOM     21  C   UNL d   1      -8.119 -27.347  -0.946  0.00  0.00     0.352 A 
ENDROOT
BRANCH  15  22
ATOM     22  O   UNL d   1     -12.349 -32.533  -5.542  0.00  0.00    -0.352 OA
ATOM     23  C   UNL d   1     -12.125 -33.484  -5.329  0.00  0.00     0.210 C 
ENDBRANCH  15  22
BRANCH  19  24
ATOM     24  O   UNL d   1     -11.599 -32.286  -7.479  0.00  0.00    -0.353 OA
ATOM     25  C   UNL d   1     -11.331 -32.080  -8.420  0.00  0.00     0.210 C 
ENDBRANCH  19  24
TORSDOF 2
ENDMDL
MODEL 3
REMARK VINA RESULT:    -9.007      1.514      6.003
REMARK INTER + INTRA:          -7.075
REMARK INTER:                 -10.049
REMARK INTRA:                   2.974
REMARK UNBOUND:                 2.985
REMARK  2 active torsions:
REMARK  status: ('A' for Active; 'I' for Inactive)
REMARK    1  A    between atoms: O_3  and  C_17 
REMARK    2  A    between atoms: O_4  and  C_21 
ROOT
ATOM      1  O   UNL d   1      -7.591 -25.778  -0.631  0.00  0.00    -0.323 OA
ATOM      2  O   UNL d   1      -8.438 -25.903   0.811  0.00  0.00    -0.323 OA
ATOM      3  N   UNL d   1     -10.370 -29.016  -2.153  0.00  0.00    -0.400 N 
ATOM      4  C   UNL d   1      -9.618 -28.363  -2.235  0.00  0.00     0.117 A 
ATOM      5  C   UNL d   1      -9.082 -28.273  -3.124  0.00  0.00     0.069 A 
ATOM      6  C   UNL d   1      -9.370 -27.784  -1.458  0.00  0.00    -0.026 A 
ATOM      7  C   UNL d   1     -10.875 -29.091  -1.293  0.00  0.00     0.122 A 
ATOM      8  C   UNL d   1     -10.639 -29.625  -2.954  0.00  0.00     0.160 A 
ATOM      9  C   UNL d   1     -10.628 -28.513  -0.516  0.00  0.00     0.058 A 
ATOM     10  C   UNL d   1      -9.875 -27.859  -0.598  0.00  0.00    -0.045 A 
ATOM     11  C   UNL d   1      -9.334 -28.872  -3.938  0.00  0.00    -0.045 A 
ATOM     12  C   UNL d   1     -10.117 -29.552  -3.853  0.00  0.00     0.002 A 
ATOM     13  C   UNL d   1      -8.584 -27.108  -1.559  0.00  0.00     0.049 A 
ATOM     14  C   UNL d   1      -9.629 -27.264   0.220  0.00  0.00     0.047 A 
ATOM     15  C   UNL d   1     -10.398 -30.187  -4.687  0.00  0.00     0.110 A 
ATOM     16  C   UNL d   1      -8.776 -28.779  -4.864  0.00  0.00     0.011 A 
ATOM     17  C   UNL d   1      -8.320 -26.502  -0.754  0.00  0.00     0.105 A 
ATOM     18  C   UNL d   1      -8.846 -26.581   0.142  0.00  0.00     0.105 A 
ATOM     19  C   UNL d   1      -9.855 -30.112  -5.623  0.00  0.00     0.102 A 
ATOM     20  C   UNL d   1      -9.038 -29.403  -5.712  0.00  0.00     0.040 A 
ATOM     21  C   UNL d   1      -7.664 -25.408   0.334  0.00  0.00     0.352 A 
ENDROOT
BRANCH  15  22
ATOM     22  O   UNL d   1     -11.152 -30.837  -4.594  0.00  0.00    -0.352 OA
ATOM     23  C   UNL d   1     -10.974 -31.769  -4.278  0.00  0.00     0.210 C 
ENDBRANCH  15  22
BRANCH  19  24
ATOM     24  O   UNL d   1     -10.105 -30.691  -6.398  0.00  0.00    -0.353 OA
ATOM     25  C   UNL d   1      -9.706 -30.521  -7.299  0.00  0.00     0.210 C 
ENDBRANCH  19  24
TORSDOF 2
ENDMDL
MODEL 4
REMARK VINA RESULT:    -8.909     17.977     19.233
REMARK INTER + INTRA:          -6.966
REMARK INTER:                  -9.947
REMARK INTRA:                   2.981
REMARK UNBOUND:                 2.985
REMARK  2 active torsions:
REMARK  status: ('A' for Active; 'I' for Inactive)
REMARK    1  A    between atoms: O_3  and  C_17 
REMARK    2  A    between atoms: O_4  and  C_21 
ROOT
ATOM      1  O   UNL d   1     -17.586 -14.280 -18.467  0.00  0.00    -0.323 OA
ATOM      2  O   UNL d   1     -16.783 -12.809 -18.509  0.00  0.00    -0.323 OA
ATOM      3  N   UNL d   1     -14.490 -15.498 -15.391  0.00  0.00    -0.400 N 
ATOM      4  C   UNL d   1     -15.292 -15.646 -15.970  0.00  0.00     0.117 A 
ATOM      5  C   UNL d   1     -15.802 -16.555 -15.955  0.00  0.00     0.069 A 
ATOM      6  C   UNL d   1     -15.615 -14.917 -16.574  0.00  0.00    -0.026 A 
ATOM      7  C   UNL d   1     -14.011 -14.621 -15.416  0.00  0.00     0.122 A 
ATOM      8  C   UNL d   1     -14.143 -16.248 -14.758  0.00  0.00     0.160 A 
ATOM      9  C   UNL d   1     -14.334 -13.892 -16.020  0.00  0.00     0.058 A 
ATOM     10  C   UNL d   1     -15.135 -14.040 -16.599  0.00  0.00    -0.045 A 
ATOM     11  C   UNL d   1     -15.472 -17.319 -15.329  0.00  0.00    -0.045 A 
ATOM     12  C   UNL d   1     -14.637 -17.165 -14.727  0.00  0.00     0.002 A 
ATOM     13  C   UNL d   1     -16.452 -15.087 -17.171  0.00  0.00     0.049 A 
ATOM     14  C   UNL d   1     -15.460 -13.271 -17.222  0.00  0.00     0.047 A 
ATOM     15  C   UNL d   1     -14.274 -17.945 -14.066  0.00  0.00     0.110 A 
ATOM     16  C   UNL d   1     -16.002 -18.265 -15.314  0.00  0.00     0.011 A 
ATOM     17  C   UNL d   1     -16.794 -14.332 -17.803  0.00  0.00     0.105 A 
ATOM     18  C   UNL d   1     -16.295 -13.418 -17.828  0.00  0.00     0.105 A 
ATOM     19  C   UNL d   1     -14.789 -18.900 -14.034  0.00  0.00     0.102 A 
ATOM     20  C   UNL d   1     -15.659 -19.061 -14.661  0.00  0.00     0.040 A 
ATOM     21  C   UNL d   1     -17.578 -13.341 -18.903  0.00  0.00     0.352 A 
ENDROOT
BRANCH  15  22
ATOM     22  O   UNL d   1     -13.471 -17.787 -13.492  0.00  0.00    -0.352 OA
ATOM     23  C   UNL d   1     -13.576 -17.364 -12.592  0.00  0.00     0.210 C 
ENDBRANCH  15  22
BRANCH  19  24
ATOM     24  O   UNL d   1     -14.463 -19.627 -13.429  0.00  0.00    -0.353 OA
ATOM     25  C   UNL d   1     -14.872 -20.538 -13.476  0.00  0.00     0.210 C 
ENDBRANCH  19  24
TORSDOF 2
ENDMDL
MODEL 5
REMARK VINA RESULT:    -8.414     17.030     18.519
REMARK INTER + INTRA:          -6.413
REMARK INTER:                  -9.393
REMARK INTRA:                   2.980
REMARK UNBOUND:                 2.985
REMARK  2 active torsions:
REMARK  status: ('A' for Active; 'I' for Inactive)
REMARK    1  A    between atoms: O_3  and  C_17 
REMARK    2  A    between atoms: O_4  and  C_21 
ROOT
ATOM      1  O   UNL d   1     -15.942 -19.682 -12.038  0.00  0.00    -0.323 OA
ATOM      2  O   UNL d   1     -14.492 -19.245 -11.320  0.00  0.00    -0.323 OA
ATOM      3  N   UNL d   1     -15.116 -16.323 -14.964  0.00  0.00    -0.400 N 
ATOM      4  C   UNL d   1     -15.651 -17.080 -14.589  0.00  0.00     0.117 A 
ATOM      5  C   UNL d   1     -16.554 -17.364 -15.024  0.00  0.00     0.069 A 
ATOM      6  C   UNL d   1     -15.321 -17.577 -13.787  0.00  0.00    -0.026 A 
ATOM      7  C   UNL d   1     -14.251 -16.062 -14.535  0.00  0.00     0.122 A 
ATOM      8  C   UNL d   1     -15.448 -15.796 -15.799  0.00  0.00     0.160 A 
ATOM      9  C   UNL d   1     -13.921 -16.558 -13.733  0.00  0.00     0.058 A 
ATOM     10  C   UNL d   1     -14.455 -17.316 -13.358  0.00  0.00    -0.045 A 
ATOM     11  C   UNL d   1     -16.904 -16.851 -15.861  0.00  0.00    -0.045 A 
ATOM     12  C   UNL d   1     -16.348 -16.062 -16.250  0.00  0.00     0.002 A 
ATOM     13  C   UNL d   1     -15.889 -18.364 -13.408  0.00  0.00     0.049 A 
ATOM     14  C   UNL d   1     -14.099 -17.824 -12.522  0.00  0.00     0.047 A 
ATOM     15  C   UNL d   1     -16.692 -15.514 -17.121  0.00  0.00     0.110 A 
ATOM     16  C   UNL d   1     -17.845 -17.146 -16.314  0.00  0.00     0.011 A 
ATOM     17  C   UNL d   1     -15.552 -18.886 -12.572  0.00  0.00     0.105 A 
ATOM     18  C   UNL d   1     -14.650 -18.614 -12.126  0.00  0.00     0.105 A 
ATOM     19  C   UNL d   1     -17.630 -15.791 -17.591  0.00  0.00     0.102 A 
ATOM     20  C   UNL d   1     -18.210 -16.613 -17.185  0.00  0.00     0.040 A 
ATOM     21  C   UNL d   1     -15.289 -19.904 -11.266  0.00  0.00     0.352 A 
ENDROOT
BRANCH  15  22
ATOM     22  O   UNL d   1     -16.150 -14.758 -17.487  0.00  0.00    -0.352 OA
ATOM     23  C   UNL d   1     -16.320 -13.823 -17.176  0.00  0.00     0.210 C 
ENDBRANCH  15  22
BRANCH  19  24
ATOM     24  O   UNL d   1     -17.957 -15.292 -18.394  0.00  0.00    -0.353 OA
ATOM     25  C   UNL d   1     -18.731 -15.644 -18.920  0.00  0.00     0.210 C 
ENDBRANCH  19  24
TORSDOF 2
ENDMDL
