MODEL 1
REMARK VINA RESULT:    -7.139      0.000      0.000
REMARK INTER + INTRA:          -6.886
REMARK INTER:                  -7.885
REMARK INTRA:                   0.999
REMARK UNBOUND:                 1.088
REMARK  3 active torsions:
REMARK  status: ('A' for Active; 'I' for Inactive)
REMARK    1  A    between atoms: O_2  and  C_10 
REMARK    2  A    between atoms: O_4  and  C_13 
REMARK    3  A    between atoms: C_7  and  C_9 
ROOT
ATOM      1  O   UNL d   1      45.160   3.166   9.505  0.00  0.00    -0.309 OA
ATOM      2  O   UNL d   1      45.902   5.886   8.478  0.00  0.00    -0.287 OA
ATOM      3  C   UNL d   1      46.103   4.166   8.451  0.00  0.00     0.081 A 
ATOM      4  C   UNL d   1      45.856   3.259   8.793  0.00  0.00     0.095 A 
ATOM      5  C   UNL d   1      44.712   3.980   9.875  0.00  0.00     0.090 A 
ATOM      6  C   UNL d   1      45.655   4.979   8.821  0.00  0.00     0.190 A 
ATOM      7  C   UNL d   1      46.826   4.278   7.709  0.00  0.00     0.085 A 
ATOM      8  C   UNL d   1      44.959   4.886   9.533  0.00  0.00     0.094 A 
ATOM      9  C   UNL d   1      46.315   2.402   8.417  0.00  0.00     0.075 A 
ATOM     10  C   UNL d   1      47.040   2.491   7.675  0.00  0.00     0.071 A 
ATOM     11  C   UNL d   1      47.298   3.435   7.319  0.00  0.00     0.074 A 
ENDROOT
BRANCH   5  12
ATOM     12  C   UNL d   1      44.016   3.887  10.587  0.00  0.00    -0.002 A 
ATOM     13  C   UNL d   1      44.281   3.907  11.551  0.00  0.00     0.014 A 
ATOM     14  C   UNL d   1      43.585   3.814  12.263  0.00  0.00     0.001 A 
ATOM     15  C   UNL d   1      42.624   3.701  12.011  0.00  0.00     0.000 A 
ATOM     16  C   UNL d   1      42.359   3.681  11.048  0.00  0.00     0.001 A 
ATOM     17  C   UNL d   1      43.055   3.774  10.335  0.00  0.00     0.014 A 
ENDBRANCH   5  12
BRANCH   7  18
ATOM     18  O   UNL d   1      47.065   5.189   7.375  0.00  0.00    -0.360 OA
ATOM     19  H   UNL d   1      47.590   5.460   7.562  0.00  0.00     0.217 HD
ENDBRANCH   7  18
BRANCH  10  20
ATOM     20  O   UNL d   1      47.487   1.675   7.308  0.00  0.00    -0.361 OA
ATOM     21  H   UNL d   1      47.272   1.412   6.789  0.00  0.00     0.217 HD
ENDBRANCH  10  20
TORSDOF 3
ENDMDL
MODEL 2
REMARK VINA RESULT:    -6.901     17.095     18.738
REMARK INTER + INTRA:          -6.619
REMARK INTER:                  -7.991
REMARK INTRA:                   1.371
REMARK UNBOUND:                 1.088
REMARK  3 active torsions:
REMARK  status: ('A' for Active; 'I' for Inactive)
REMARK    1  A    between atoms: O_2  and  C_10 
REMARK    2  A    between atoms: O_4  and  C_13 
REMARK    3  A    between atoms: C_7  and  C_9 
ROOT
ATOM      1  O   UNL d   1      47.029  -7.956  23.810  0.00  0.00    -0.309 OA
ATOM      2  O   UNL d   1      44.287  -7.505  22.678  0.00  0.00    -0.287 OA
ATOM      3  C   UNL d   1      45.517  -8.585  23.244  0.00  0.00     0.081 A 
ATOM      4  C   UNL d   1      46.431  -8.735  23.622  0.00  0.00     0.095 A 
ATOM      5  C   UNL d   1      46.713  -7.026  23.620  0.00  0.00     0.090 A 
ATOM      6  C   UNL d   1      45.201  -7.655  23.055  0.00  0.00     0.190 A 
ATOM      7  C   UNL d   1      44.884  -9.386  23.044  0.00  0.00     0.085 A 
ATOM      8  C   UNL d   1      45.799  -6.876  23.243  0.00  0.00     0.094 A 
ATOM      9  C   UNL d   1      46.775  -9.698  23.824  0.00  0.00     0.075 A 
ATOM     10  C   UNL d   1      46.157 -10.514  23.631  0.00  0.00     0.071 A 
ATOM     11  C   UNL d   1      45.206 -10.358  23.238  0.00  0.00     0.074 A 
ENDROOT
BRANCH   5  12
ATOM     12  C   UNL d   1      47.311  -6.247  23.808  0.00  0.00    -0.002 A 
ATOM     13  C   UNL d   1      47.159  -5.376  23.341  0.00  0.00     0.014 A 
ATOM     14  C   UNL d   1      47.757  -4.597  23.528  0.00  0.00     0.001 A 
ATOM     15  C   UNL d   1      48.507  -4.688  24.184  0.00  0.00     0.000 A 
ATOM     16  C   UNL d   1      48.658  -5.559  24.651  0.00  0.00     0.001 A 
ATOM     17  C   UNL d   1      48.061  -6.338  24.464  0.00  0.00     0.014 A 
ENDBRANCH   5  12
BRANCH   7  18
ATOM     18  O   UNL d   1      43.972  -9.224  22.667  0.00  0.00    -0.360 OA
ATOM     19  H   UNL d   1      43.645  -8.730  22.849  0.00  0.00     0.217 HD
ENDBRANCH   7  18
BRANCH  10  20
ATOM     20  O   UNL d   1      46.477 -11.442  23.822  0.00  0.00    -0.361 OA
ATOM     21  H   UNL d   1      47.065 -11.538  23.993  0.00  0.00     0.217 HD
ENDBRANCH  10  20
TORSDOF 3
ENDMDL
MODEL 3
REMARK VINA RESULT:    -6.758      3.150      4.450
REMARK INTER + INTRA:          -6.460
REMARK INTER:                  -7.501
REMARK INTRA:                   1.041
REMARK UNBOUND:                 1.088
REMARK  3 active torsions:
REMARK  status: ('A' for Active; 'I' for Inactive)
REMARK    1  A    between atoms: O_2  and  C_10 
REMARK    2  A    between atoms: O_4  and  C_13 
REMARK    3  A    between atoms: C_7  and  C_9 
ROOT
ATOM      1  O   UNL d   1      46.713   3.034   6.378  0.00  0.00    -0.309 OA
ATOM      2  O   UNL d   1      48.932   3.707   4.474  0.00  0.00    -0.287 OA
ATOM      3  C   UNL d   1      47.801   2.563   5.116  0.00  0.00     0.081 A 
ATOM      4  C   UNL d   1      47.061   2.338   5.750  0.00  0.00     0.095 A 
ATOM      5  C   UNL d   1      47.103   3.955   6.371  0.00  0.00     0.090 A 
ATOM      6  C   UNL d   1      48.192   3.483   5.109  0.00  0.00     0.190 A 
ATOM      7  C   UNL d   1      48.174   1.848   4.457  0.00  0.00     0.085 A 
ATOM      8  C   UNL d   1      47.843   4.179   5.736  0.00  0.00     0.094 A 
ATOM      9  C   UNL d   1      46.644   1.384   5.769  0.00  0.00     0.075 A 
ATOM     10  C   UNL d   1      47.002   0.654   5.118  0.00  0.00     0.071 A 
ATOM     11  C   UNL d   1      47.772   0.887   4.458  0.00  0.00     0.074 A 
ENDROOT
BRANCH   5  12
ATOM     12  C   UNL d   1      46.755   4.651   6.998  0.00  0.00    -0.002 A 
ATOM     13  C   UNL d   1      46.947   4.583   7.977  0.00  0.00     0.014 A 
ATOM     14  C   UNL d   1      46.598   5.279   8.605  0.00  0.00     0.001 A 
ATOM     15  C   UNL d   1      46.057   6.043   8.253  0.00  0.00     0.000 A 
ATOM     16  C   UNL d   1      45.864   6.111   7.275  0.00  0.00     0.001 A 
ATOM     17  C   UNL d   1      46.213   5.414   6.647  0.00  0.00     0.014 A 
ENDBRANCH   5  12
BRANCH   7  18
ATOM     18  O   UNL d   1      48.914   2.084   3.826  0.00  0.00    -0.360 OA
ATOM     19  H   UNL d   1      49.504   2.046   4.013  0.00  0.00     0.217 HD
ENDBRANCH   7  18
BRANCH  10  20
ATOM     20  O   UNL d   1      46.608  -0.266   5.128  0.00  0.00    -0.361 OA
ATOM     21  H   UNL d   1      46.079  -0.373   5.434  0.00  0.00     0.217 HD
ENDBRANCH  10  20
TORSDOF 3
ENDMDL
MODEL 4
REMARK VINA RESULT:    -6.741     16.301     18.041
REMARK INTER + INTRA:          -6.441
REMARK INTER:                  -7.463
REMARK INTRA:                   1.022
REMARK UNBOUND:                 1.088
REMARK  3 active torsions:
REMARK  status: ('A' for Active; 'I' for Inactive)
REMARK    1  A    between atoms: O_2  and  C_10 
REMARK    2  A    between atoms: O_4  and  C_13 
REMARK    3  A    between atoms: C_7  and  C_9 
ROOT
ATOM      1  O   UNL d   1      47.256  -7.121  23.972  0.00  0.00    -0.309 OA
ATOM      2  O   UNL d   1      45.743  -5.494  21.956  0.00  0.00    -0.287 OA
ATOM      3  C   UNL d   1      47.009  -5.628  23.130  0.00  0.00     0.081 A 
ATOM      4  C   UNL d   1      47.514  -6.170  23.802  0.00  0.00     0.095 A 
ATOM      5  C   UNL d   1      46.493  -7.530  23.470  0.00  0.00     0.090 A 
ATOM      6  C   UNL d   1      46.247  -6.036  22.628  0.00  0.00     0.190 A 
ATOM      7  C   UNL d   1      47.267  -4.636  22.942  0.00  0.00     0.085 A 
ATOM      8  C   UNL d   1      45.989  -6.987  22.798  0.00  0.00     0.094 A 
ATOM      9  C   UNL d   1      48.310  -5.759  24.333  0.00  0.00     0.075 A 
ATOM     10  C   UNL d   1      48.585  -4.769  24.161  0.00  0.00     0.071 A 
ATOM     11  C   UNL d   1      48.060  -4.204  23.461  0.00  0.00     0.074 A 
ENDROOT
BRANCH   5  12
ATOM     12  C   UNL d   1      46.235  -8.481  23.640  0.00  0.00    -0.002 A 
ATOM     13  C   UNL d   1      45.420  -8.689  24.180  0.00  0.00     0.014 A 
ATOM     14  C   UNL d   1      45.161  -9.640  24.350  0.00  0.00     0.001 A 
ATOM     15  C   UNL d   1      45.719 -10.383  23.981  0.00  0.00     0.000 A 
ATOM     16  C   UNL d   1      46.535 -10.175  23.441  0.00  0.00     0.001 A 
ATOM     17  C   UNL d   1      46.793  -9.224  23.270  0.00  0.00     0.014 A 
ENDBRANCH   5  12
BRANCH   7  18
ATOM     18  O   UNL d   1      46.756  -4.103  22.268  0.00  0.00    -0.360 OA
ATOM     19  H   UNL d   1      46.621  -3.509  22.381  0.00  0.00     0.217 HD
ENDBRANCH   7  18
BRANCH  10  20
ATOM     20  O   UNL d   1      49.348  -4.364  24.665  0.00  0.00    -0.361 OA
ATOM     21  H   UNL d   1      49.302  -4.275  25.277  0.00  0.00     0.217 HD
ENDBRANCH  10  20
TORSDOF 3
ENDMDL
MODEL 5
REMARK VINA RESULT:    -6.555     17.184     18.915
REMARK INTER + INTRA:          -6.233
REMARK INTER:                  -7.664
REMARK INTRA:                   1.431
REMARK UNBOUND:                 1.088
REMARK  3 active torsions:
REMARK  status: ('A' for Active; 'I' for Inactive)
REMARK    1  A    between atoms: O_2  and  C_10 
REMARK    2  A    between atoms: O_4  and  C_13 
REMARK    3  A    between atoms: C_7  and  C_9 
ROOT
ATOM      1  O   UNL d   1      46.542  -7.560  23.487  0.00  0.00    -0.309 OA
ATOM      2  O   UNL d   1      49.120  -7.880  24.988  0.00  0.00    -0.287 OA
ATOM      3  C   UNL d   1      47.968  -6.866  24.186  0.00  0.00     0.081 A 
ATOM      4  C   UNL d   1      47.108  -6.760  23.685  0.00  0.00     0.095 A 
ATOM      5  C   UNL d   1      46.836  -8.467  23.789  0.00  0.00     0.090 A 
ATOM      6  C   UNL d   1      48.261  -7.774  24.488  0.00  0.00     0.190 A 
ATOM      7  C   UNL d   1      48.567  -6.042  24.399  0.00  0.00     0.085 A 
ATOM      8  C   UNL d   1      47.695  -8.574  24.289  0.00  0.00     0.094 A 
ATOM      9  C   UNL d   1      46.789  -5.821  23.364  0.00  0.00     0.075 A 
ATOM     10  C   UNL d   1      47.374  -4.983  23.567  0.00  0.00     0.071 A 
ATOM     11  C   UNL d   1      48.268  -5.094  24.088  0.00  0.00     0.074 A 
ENDROOT
BRANCH   5  12
ATOM     12  C   UNL d   1      46.270  -9.267  23.590  0.00  0.00    -0.002 A 
ATOM     13  C   UNL d   1      46.508 -10.157  23.980  0.00  0.00     0.014 A 
ATOM     14  C   UNL d   1      45.942 -10.957  23.781  0.00  0.00     0.001 A 
ATOM     15  C   UNL d   1      45.138 -10.867  23.194  0.00  0.00     0.000 A 
ATOM     16  C   UNL d   1      44.900  -9.978  22.804  0.00  0.00     0.001 A 
ATOM     17  C   UNL d   1      45.466  -9.177  23.003  0.00  0.00     0.014 A 
ENDBRANCH   5  12
BRANCH   7  18
ATOM     18  O   UNL d   1      49.424  -6.161  24.900  0.00  0.00    -0.360 OA
ATOM     19  H   UNL d   1      49.906  -5.789  24.782  0.00  0.00     0.217 HD
ENDBRANCH   7  18
BRANCH  10  20
ATOM     20  O   UNL d   1      47.077  -4.077  23.264  0.00  0.00    -0.361 OA
ATOM     21  H   UNL d   1      47.319  -3.569  23.523  0.00  0.00     0.217 HD
ENDBRANCH  10  20
TORSDOF 3
ENDMDL
