MODEL 1
REMARK VINA RESULT:    -7.220      0.000      0.000
REMARK INTER + INTRA:          -8.202
REMARK INTER:                  -8.257
REMARK INTRA:                   0.055
REMARK UNBOUND:                 0.074
REMARK  4 active torsions:
REMARK  status: ('A' for Active; 'I' for Inactive)
REMARK    1  A    between atoms: O_1  and  C_13 
REMARK    2  A    between atoms: O_4  and  C_16 
REMARK    3  A    between atoms: O_5  and  C_18 
REMARK    4  A    between atoms: C_14  and  C_18 
ROOT
ATOM      1  O   UNL d   1      44.570  -7.610  22.625  0.00  0.00    -0.286 OA
ATOM      2  O   UNL d   1      48.033  -8.587  24.372  0.00  0.00    -0.287 OA
ATOM      3  C   UNL d   1      46.974  -7.389  23.706  0.00  0.00     0.032 A 
ATOM      4  C   UNL d   1      46.109  -7.145  23.269  0.00  0.00     0.062 A 
ATOM      5  C   UNL d   1      45.628  -8.809  23.291  0.00  0.00     0.062 A 
ATOM      6  C   UNL d   1      46.494  -9.053  23.727  0.00  0.00     0.032 A 
ATOM      7  C   UNL d   1      45.436  -7.855  23.062  0.00  0.00     0.199 A 
ATOM      8  C   UNL d   1      47.167  -8.343  23.935  0.00  0.00     0.194 A 
ATOM      9  C   UNL d   1      47.685  -6.661  23.928  0.00  0.00     0.026 A 
ATOM     10  C   UNL d   1      45.894  -6.155  23.025  0.00  0.00     0.081 A 
ATOM     11  C   UNL d   1      47.492  -5.665  23.692  0.00  0.00    -0.031 A 
ATOM     12  C   UNL d   1      46.590  -5.411  23.238  0.00  0.00     0.046 A 
ATOM     13  C   UNL d   1      44.918  -9.537  23.069  0.00  0.00     0.080 A 
ATOM     14  C   UNL d   1      46.710 -10.042  23.972  0.00  0.00     0.017 A 
ATOM     15  C   UNL d   1      45.112 -10.533  23.305  0.00  0.00     0.037 A 
ATOM     16  C   UNL d   1      46.013 -10.787  23.759  0.00  0.00     0.004 A 
ENDROOT
BRANCH  11  17
ATOM     17  C   UNL d   1      48.168  -4.958  23.902  0.00  0.00     0.203 C 
BRANCH  17  18
ATOM     18  O   UNL d   1      49.058  -5.214  24.279  0.00  0.00    -0.396 OA
ATOM     19  H   UNL d   1      49.420  -4.783  24.539  0.00  0.00     0.209 HD
ENDBRANCH  17  18
ENDBRANCH  11  17
BRANCH  10  20
ATOM     20  O   UNL d   1      45.025  -5.923  22.588  0.00  0.00    -0.360 OA
ATOM     21  H   UNL d   1      44.513  -6.247  22.725  0.00  0.00     0.217 HD
ENDBRANCH  10  20
BRANCH  13  22
ATOM     22  O   UNL d   1      44.056  -9.281  22.632  0.00  0.00    -0.360 OA
ATOM     23  H   UNL d   1      43.810  -8.721  22.736  0.00  0.00     0.217 HD
ENDBRANCH  13  22
TORSDOF 4
ENDMDL
MODEL 2
REMARK VINA RESULT:    -7.073      1.015      3.890
REMARK INTER + INTRA:          -8.033
REMARK INTER:                  -8.046
REMARK INTRA:                   0.013
REMARK UNBOUND:                 0.074
REMARK  4 active torsions:
REMARK  status: ('A' for Active; 'I' for Inactive)
REMARK    1  A    between atoms: O_1  and  C_13 
REMARK    2  A    between atoms: O_4  and  C_16 
REMARK    3  A    between atoms: O_5  and  C_18 
REMARK    4  A    between atoms: C_14  and  C_18 
ROOT
ATOM      1  O   UNL d   1      45.503  -6.372  22.536  0.00  0.00    -0.286 OA
ATOM      2  O   UNL d   1      48.160  -8.406  24.728  0.00  0.00    -0.287 OA
ATOM      3  C   UNL d   1      46.712  -8.371  23.778  0.00  0.00     0.032 A 
ATOM      4  C   UNL d   1      46.048  -7.863  23.230  0.00  0.00     0.062 A 
ATOM      5  C   UNL d   1      46.950  -6.407  23.486  0.00  0.00     0.062 A 
ATOM      6  C   UNL d   1      47.615  -6.915  24.034  0.00  0.00     0.032 A 
ATOM      7  C   UNL d   1      46.167  -6.881  23.084  0.00  0.00     0.199 A 
ATOM      8  C   UNL d   1      47.495  -7.897  24.180  0.00  0.00     0.194 A 
ATOM      9  C   UNL d   1      46.601  -9.395  23.939  0.00  0.00     0.026 A 
ATOM     10  C   UNL d   1      45.227  -8.343  22.805  0.00  0.00     0.081 A 
ATOM     11  C   UNL d   1      45.788  -9.895  23.524  0.00  0.00    -0.031 A 
ATOM     12  C   UNL d   1      45.096  -9.366  22.953  0.00  0.00     0.046 A 
ATOM     13  C   UNL d   1      47.062  -5.384  23.326  0.00  0.00     0.080 A 
ATOM     14  C   UNL d   1      48.436  -6.436  24.460  0.00  0.00     0.017 A 
ATOM     15  C   UNL d   1      47.875  -4.884  23.741  0.00  0.00     0.037 A 
ATOM     16  C   UNL d   1      48.567  -5.413  24.312  0.00  0.00     0.004 A 
ENDROOT
BRANCH  11  17
ATOM     17  C   UNL d   1      45.672 -10.877  23.672  0.00  0.00     0.203 C 
BRANCH  17  18
ATOM     18  O   UNL d   1      46.445 -11.497  23.536  0.00  0.00    -0.396 OA
ATOM     19  H   UNL d   1      46.401 -11.963  23.128  0.00  0.00     0.209 HD
ENDBRANCH  17  18
ENDBRANCH  11  17
BRANCH  10  20
ATOM     20  O   UNL d   1      44.569  -7.824  22.259  0.00  0.00    -0.360 OA
ATOM     21  H   UNL d   1      44.743  -7.296  21.984  0.00  0.00     0.217 HD
ENDBRANCH  10  20
BRANCH  13  22
ATOM     22  O   UNL d   1      46.391  -4.886  22.776  0.00  0.00    -0.360 OA
ATOM     23  H   UNL d   1      46.544  -4.342  22.520  0.00  0.00     0.217 HD
ENDBRANCH  13  22
TORSDOF 4
ENDMDL
MODEL 3
REMARK VINA RESULT:    -6.984     10.945     12.808
REMARK INTER + INTRA:          -7.931
REMARK INTER:                  -8.019
REMARK INTRA:                   0.088
REMARK UNBOUND:                 0.074
REMARK  4 active torsions:
REMARK  status: ('A' for Active; 'I' for Inactive)
REMARK    1  A    between atoms: O_1  and  C_13 
REMARK    2  A    between atoms: O_4  and  C_16 
REMARK    3  A    between atoms: O_5  and  C_18 
REMARK    4  A    between atoms: C_14  and  C_18 
ROOT
ATOM      1  O   UNL d   1      37.955 -13.682  15.028  0.00  0.00    -0.286 OA
ATOM      2  O   UNL d   1      39.307 -10.352  13.271  0.00  0.00    -0.287 OA
ATOM      3  C   UNL d   1      38.782 -11.191  14.692  0.00  0.00     0.032 A 
ATOM      4  C   UNL d   1      38.444 -12.023  15.131  0.00  0.00     0.062 A 
ATOM      5  C   UNL d   1      38.481 -12.843  13.606  0.00  0.00     0.062 A 
ATOM      6  C   UNL d   1      38.819 -12.010  13.167  0.00  0.00     0.032 A 
ATOM      7  C   UNL d   1      38.293 -12.849  14.588  0.00  0.00     0.199 A 
ATOM      8  C   UNL d   1      38.969 -11.184  13.710  0.00  0.00     0.194 A 
ATOM      9  C   UNL d   1      38.943 -10.322  15.245  0.00  0.00     0.026 A 
ATOM     10  C   UNL d   1      38.244 -12.044  16.153  0.00  0.00     0.081 A 
ATOM     11  C   UNL d   1      38.750 -10.321  16.268  0.00  0.00    -0.031 A 
ATOM     12  C   UNL d   1      38.398 -11.188  16.725  0.00  0.00     0.046 A 
ATOM     13  C   UNL d   1      38.320 -13.711  13.053  0.00  0.00     0.080 A 
ATOM     14  C   UNL d   1      39.019 -11.988  12.145  0.00  0.00     0.017 A 
ATOM     15  C   UNL d   1      38.513 -13.711  12.030  0.00  0.00     0.037 A 
ATOM     16  C   UNL d   1      38.865 -12.845  11.573  0.00  0.00     0.004 A 
ENDROOT
BRANCH  11  17
ATOM     17  C   UNL d   1      38.901  -9.493  16.808  0.00  0.00     0.203 C 
BRANCH  17  18
ATOM     18  O   UNL d   1      38.568  -9.442  17.750  0.00  0.00    -0.396 OA
ATOM     19  H   UNL d   1      38.967  -9.342  18.214  0.00  0.00     0.209 HD
ENDBRANCH  17  18
ENDBRANCH  11  17
BRANCH  10  20
ATOM     20  O   UNL d   1      37.906 -12.883  16.582  0.00  0.00    -0.360 OA
ATOM     21  H   UNL d   1      37.962 -12.961  17.195  0.00  0.00     0.217 HD
ENDBRANCH  10  20
BRANCH  13  22
ATOM     22  O   UNL d   1      37.982 -14.537  13.503  0.00  0.00    -0.360 OA
ATOM     23  H   UNL d   1      38.382 -14.969  13.699  0.00  0.00     0.217 HD
ENDBRANCH  13  22
TORSDOF 4
ENDMDL
MODEL 4
REMARK VINA RESULT:    -6.880     22.737     23.801
REMARK INTER + INTRA:          -7.812
REMARK INTER:                  -7.842
REMARK INTRA:                   0.030
REMARK UNBOUND:                 0.074
REMARK  4 active torsions:
REMARK  status: ('A' for Active; 'I' for Inactive)
REMARK    1  A    between atoms: O_1  and  C_13 
REMARK    2  A    between atoms: O_4  and  C_16 
REMARK    3  A    between atoms: O_5  and  C_18 
REMARK    4  A    between atoms: C_14  and  C_18 
ROOT
ATOM      1  O   UNL d   1      37.919  -2.510   0.447  0.00  0.00    -0.286 OA
ATOM      2  O   UNL d   1      41.425  -4.052   1.600  0.00  0.00    -0.287 OA
ATOM      3  C   UNL d   1      39.769  -3.673   1.938  0.00  0.00     0.032 A 
ATOM      4  C   UNL d   1      38.893  -3.288   1.650  0.00  0.00     0.062 A 
ATOM      5  C   UNL d   1      39.575  -2.889   0.109  0.00  0.00     0.062 A 
ATOM      6  C   UNL d   1      40.452  -3.274   0.397  0.00  0.00     0.032 A 
ATOM      7  C   UNL d   1      38.796  -2.895   0.735  0.00  0.00     0.199 A 
ATOM      8  C   UNL d   1      40.549  -3.667   1.312  0.00  0.00     0.194 A 
ATOM      9  C   UNL d   1      39.886  -4.086   2.888  0.00  0.00     0.026 A 
ATOM     10  C   UNL d   1      38.073  -3.288   2.292  0.00  0.00     0.081 A 
ATOM     11  C   UNL d   1      39.079  -4.096   3.546  0.00  0.00    -0.031 A 
ATOM     12  C   UNL d   1      38.166  -3.695   3.246  0.00  0.00     0.046 A 
ATOM     13  C   UNL d   1      39.459  -2.477  -0.840  0.00  0.00     0.080 A 
ATOM     14  C   UNL d   1      41.273  -3.274  -0.244  0.00  0.00     0.017 A 
ATOM     15  C   UNL d   1      40.267  -2.466  -1.498  0.00  0.00     0.037 A 
ATOM     16  C   UNL d   1      41.179  -2.868  -1.198  0.00  0.00     0.004 A 
ENDROOT
BRANCH  11  17
ATOM     17  C   UNL d   1      39.180  -4.490   4.460  0.00  0.00     0.203 C 
BRANCH  17  18
ATOM     18  O   UNL d   1      40.055  -4.421   4.939  0.00  0.00    -0.396 OA
ATOM     19  H   UNL d   1      40.406  -4.926   5.017  0.00  0.00     0.209 HD
ENDBRANCH  17  18
ENDBRANCH  11  17
BRANCH  10  20
ATOM     20  O   UNL d   1      37.201  -2.899   1.993  0.00  0.00    -0.360 OA
ATOM     21  H   UNL d   1      36.862  -3.193   1.564  0.00  0.00     0.217 HD
ENDBRANCH  10  20
BRANCH  13  22
ATOM     22  O   UNL d   1      38.578  -2.094  -1.118  0.00  0.00    -0.360 OA
ATOM     23  H   UNL d   1      38.557  -1.547  -1.411  0.00  0.00     0.217 HD
ENDBRANCH  13  22
TORSDOF 4
ENDMDL
MODEL 5
REMARK VINA RESULT:    -6.768      1.536      4.303
REMARK INTER + INTRA:          -7.683
REMARK INTER:                  -7.771
REMARK INTRA:                   0.088
REMARK UNBOUND:                 0.074
REMARK  4 active torsions:
REMARK  status: ('A' for Active; 'I' for Inactive)
REMARK    1  A    between atoms: O_1  and  C_13 
REMARK    2  A    between atoms: O_4  and  C_16 
REMARK    3  A    between atoms: O_5  and  C_18 
REMARK    4  A    between atoms: C_14  and  C_18 
ROOT
ATOM      1  O   UNL d   1      47.198  -6.648  22.575  0.00  0.00    -0.286 OA
ATOM      2  O   UNL d   1      43.454  -7.988  23.008  0.00  0.00    -0.287 OA
ATOM      3  C   UNL d   1      45.163  -8.270  23.050  0.00  0.00     0.032 A 
ATOM      4  C   UNL d   1      46.099  -7.935  22.942  0.00  0.00     0.062 A 
ATOM      5  C   UNL d   1      45.490  -6.366  22.533  0.00  0.00     0.062 A 
ATOM      6  C   UNL d   1      44.554  -6.701  22.641  0.00  0.00     0.032 A 
ATOM      7  C   UNL d   1      46.262  -6.983  22.683  0.00  0.00     0.199 A 
ATOM      8  C   UNL d   1      44.390  -7.653  22.900  0.00  0.00     0.194 A 
ATOM      9  C   UNL d   1      44.976  -9.259  23.319  0.00  0.00     0.026 A 
ATOM     10  C   UNL d   1      46.913  -8.566  23.095  0.00  0.00     0.081 A 
ATOM     11  C   UNL d   1      45.776  -9.908  23.477  0.00  0.00    -0.031 A 
ATOM     12  C   UNL d   1      46.750  -9.559  23.364  0.00  0.00     0.046 A 
ATOM     13  C   UNL d   1      45.675  -5.377  22.264  0.00  0.00     0.080 A 
ATOM     14  C   UNL d   1      43.738  -6.071  22.488  0.00  0.00     0.017 A 
ATOM     15  C   UNL d   1      44.875  -4.729  22.106  0.00  0.00     0.037 A 
ATOM     16  C   UNL d   1      43.901  -5.078  22.218  0.00  0.00     0.004 A 
ENDROOT
BRANCH  11  17
ATOM     17  C   UNL d   1      45.608 -10.859  23.736  0.00  0.00     0.203 C 
BRANCH  17  18
ATOM     18  O   UNL d   1      46.365 -11.513  23.755  0.00  0.00    -0.396 OA
ATOM     19  H   UNL d   1      46.833 -11.458  23.351  0.00  0.00     0.209 HD
ENDBRANCH  17  18
ENDBRANCH  11  17
BRANCH  10  20
ATOM     20  O   UNL d   1      47.844  -8.220  22.984  0.00  0.00    -0.360 OA
ATOM     21  H   UNL d   1      48.306  -8.612  22.847  0.00  0.00     0.217 HD
ENDBRANCH  10  20
BRANCH  13  22
ATOM     22  O   UNL d   1      46.615  -5.053  22.158  0.00  0.00    -0.360 OA
ATOM     23  H   UNL d   1      47.047  -5.215  22.574  0.00  0.00     0.217 HD
ENDBRANCH  13  22
TORSDOF 4
ENDMDL
