MODEL 1
REMARK VINA RESULT:    -6.991      0.000      0.000
REMARK INTER + INTRA:          -4.010
REMARK INTER:                  -9.077
REMARK INTRA:                   5.067
REMARK UNBOUND:                 5.024
REMARK  6 active torsions:
REMARK  status: ('A' for Active; 'I' for Inactive)
REMARK    1  A    between atoms: O_2  and  C_15 
REMARK    2  A    between atoms: O_3  and  C_17 
REMARK    3  A    between atoms: O_4  and  C_11 
REMARK    4  A    between atoms: O_6  and  C_22 
REMARK    5  A    between atoms: O_7  and  C_20 
REMARK    6  A    between atoms: C_10  and  C_13 
ROOT
ATOM      1  O   UNL d   1      44.932   5.063   9.344  0.00  0.00    -0.309 OA
ATOM      2  O   UNL d   1      46.403   2.477   8.589  0.00  0.00    -0.287 OA
ATOM      3  C   UNL d   1      46.169   4.220   8.388  0.00  0.00     0.084 A 
ATOM      4  C   UNL d   1      45.692   5.064   8.632  0.00  0.00     0.096 A 
ATOM      5  C   UNL d   1      44.666   4.169   9.809  0.00  0.00     0.090 A 
ATOM      6  C   UNL d   1      46.896   4.237   7.702  0.00  0.00     0.119 A 
ATOM      7  C   UNL d   1      45.919   3.316   8.840  0.00  0.00     0.190 A 
ATOM      8  C   UNL d   1      45.942   5.925   8.189  0.00  0.00     0.078 A 
ATOM      9  C   UNL d   1      47.146   5.098   7.259  0.00  0.00     0.136 A 
ATOM     10  C   UNL d   1      45.163   3.290   9.555  0.00  0.00     0.094 A 
ATOM     11  C   UNL d   1      46.669   5.942   7.503  0.00  0.00     0.107 A 
ENDROOT
BRANCH   5  12
ATOM     12  C   UNL d   1      43.938   4.156  10.495  0.00  0.00     0.001 A 
ATOM     13  C   UNL d   1      43.075   3.691  10.298  0.00  0.00     0.053 A 
ATOM     14  C   UNL d   1      42.346   3.678  10.984  0.00  0.00     0.099 A 
ATOM     15  C   UNL d   1      42.482   4.129  11.866  0.00  0.00     0.101 A 
ATOM     16  C   UNL d   1      43.345   4.594  12.062  0.00  0.00     0.040 A 
ATOM     17  C   UNL d   1      44.073   4.607  11.377  0.00  0.00     0.017 A 
BRANCH  14  18
ATOM     18  O   UNL d   1      41.483   3.213  10.788  0.00  0.00    -0.358 OA
ATOM     19  H   UNL d   1      41.002   3.533  10.564  0.00  0.00     0.217 HD
ENDBRANCH  14  18
BRANCH  15  20
ATOM     20  O   UNL d   1      41.755   4.116  12.551  0.00  0.00    -0.353 OA
ATOM     21  C   UNL d   1      41.790   4.741  13.331  0.00  0.00     0.210 C 
ENDBRANCH  15  20
ENDBRANCH   5  12
BRANCH   6  22
ATOM     22  O   UNL d   1      47.373   3.392   7.458  0.00  0.00    -0.357 OA
ATOM     23  H   UNL d   1      47.522   3.280   6.867  0.00  0.00     0.218 HD
ENDBRANCH   6  22
BRANCH  11  24
ATOM     24  O   UNL d   1      46.920   6.803   7.061  0.00  0.00    -0.353 OA
ATOM     25  C   UNL d   1      46.471   7.655   7.334  0.00  0.00     0.210 C 
ENDBRANCH  11  24
BRANCH   9  26
ATOM     26  O   UNL d   1      47.874   5.115   6.573  0.00  0.00    -0.351 OA
ATOM     27  C   UNL d   1      47.694   4.785   5.646  0.00  0.00     0.210 C 
ENDBRANCH   9  26
TORSDOF 6
ENDMDL
MODEL 2
REMARK VINA RESULT:    -6.896     15.259     17.348
REMARK INTER + INTRA:          -3.887
REMARK INTER:                  -9.035
REMARK INTRA:                   5.147
REMARK UNBOUND:                 5.024
REMARK  6 active torsions:
REMARK  status: ('A' for Active; 'I' for Inactive)
REMARK    1  A    between atoms: O_2  and  C_15 
REMARK    2  A    between atoms: O_3  and  C_17 
REMARK    3  A    between atoms: O_4  and  C_11 
REMARK    4  A    between atoms: O_6  and  C_22 
REMARK    5  A    between atoms: O_7  and  C_20 
REMARK    6  A    between atoms: C_10  and  C_13 
ROOT
ATOM      1  O   UNL d   1      46.289  -5.973  22.177  0.00  0.00    -0.309 OA
ATOM      2  O   UNL d   1      48.107  -4.979  24.442  0.00  0.00    -0.287 OA
ATOM      3  C   UNL d   1      47.285  -4.692  22.902  0.00  0.00     0.084 A 
ATOM      4  C   UNL d   1      46.693  -5.013  22.162  0.00  0.00     0.096 A 
ATOM      5  C   UNL d   1      46.506  -6.608  22.974  0.00  0.00     0.090 A 
ATOM      6  C   UNL d   1      47.665  -3.768  22.873  0.00  0.00     0.119 A 
ATOM      7  C   UNL d   1      47.514  -5.310  23.708  0.00  0.00     0.190 A 
ATOM      8  C   UNL d   1      46.481  -4.409  21.394  0.00  0.00     0.078 A 
ATOM      9  C   UNL d   1      47.453  -3.164  22.105  0.00  0.00     0.136 A 
ATOM     10  C   UNL d   1      47.122  -6.274  23.745  0.00  0.00     0.094 A 
ATOM     11  C   UNL d   1      46.861  -3.484  21.365  0.00  0.00     0.107 A 
ENDROOT
BRANCH   5  12
ATOM     12  C   UNL d   1      46.124  -7.532  23.000  0.00  0.00     0.001 A 
ATOM     13  C   UNL d   1      45.133  -7.664  22.984  0.00  0.00     0.053 A 
ATOM     14  C   UNL d   1      44.751  -8.588  23.009  0.00  0.00     0.099 A 
ATOM     15  C   UNL d   1      45.360  -9.380  23.051  0.00  0.00     0.101 A 
ATOM     16  C   UNL d   1      46.351  -9.248  23.067  0.00  0.00     0.040 A 
ATOM     17  C   UNL d   1      46.733  -8.324  23.041  0.00  0.00     0.017 A 
BRANCH  14  18
ATOM     18  O   UNL d   1      43.760  -8.721  22.993  0.00  0.00    -0.358 OA
ATOM     19  H   UNL d   1      43.478  -9.011  23.462  0.00  0.00     0.217 HD
ENDBRANCH  14  18
BRANCH  15  20
ATOM     20  O   UNL d   1      44.979 -10.303  23.076  0.00  0.00    -0.353 OA
ATOM     21  C   UNL d   1      45.510 -11.054  23.468  0.00  0.00     0.210 C 
ENDBRANCH  15  20
ENDBRANCH   5  12
BRANCH   6  22
ATOM     22  O   UNL d   1      48.256  -3.447  23.613  0.00  0.00    -0.357 OA
ATOM     23  H   UNL d   1      48.377  -3.817  24.095  0.00  0.00     0.218 HD
ENDBRANCH   6  22
BRANCH  11  24
ATOM     24  O   UNL d   1      46.649  -2.880  20.597  0.00  0.00    -0.353 OA
ATOM     25  C   UNL d   1      46.186  -3.243  19.789  0.00  0.00     0.210 C 
ENDBRANCH  11  24
BRANCH   9  26
ATOM     26  O   UNL d   1      47.833  -2.239  22.076  0.00  0.00    -0.351 OA
ATOM     27  C   UNL d   1      47.430  -1.516  22.637  0.00  0.00     0.210 C 
ENDBRANCH   9  26
TORSDOF 6
ENDMDL
MODEL 3
REMARK VINA RESULT:    -6.565      2.018      3.444
REMARK INTER + INTRA:          -3.459
REMARK INTER:                  -8.503
REMARK INTRA:                   5.044
REMARK UNBOUND:                 5.024
REMARK  6 active torsions:
REMARK  status: ('A' for Active; 'I' for Inactive)
REMARK    1  A    between atoms: O_2  and  C_15 
REMARK    2  A    between atoms: O_3  and  C_17 
REMARK    3  A    between atoms: O_4  and  C_11 
REMARK    4  A    between atoms: O_6  and  C_22 
REMARK    5  A    between atoms: O_7  and  C_20 
REMARK    6  A    between atoms: C_10  and  C_13 
ROOT
ATOM      1  O   UNL d   1      46.553   3.841   7.226  0.00  0.00    -0.309 OA
ATOM      2  O   UNL d   1      49.001   2.039   7.646  0.00  0.00    -0.287 OA
ATOM      3  C   UNL d   1      47.917   2.918   6.560  0.00  0.00     0.084 A 
ATOM      4  C   UNL d   1      47.120   3.505   6.419  0.00  0.00     0.096 A 
ATOM      5  C   UNL d   1      46.821   3.561   8.193  0.00  0.00     0.090 A 
ATOM      6  C   UNL d   1      48.451   2.603   5.775  0.00  0.00     0.119 A 
ATOM      7  C   UNL d   1      48.203   2.626   7.517  0.00  0.00     0.190 A 
ATOM      8  C   UNL d   1      46.857   3.778   5.493  0.00  0.00     0.078 A 
ATOM      9  C   UNL d   1      48.188   2.876   4.849  0.00  0.00     0.136 A 
ATOM     10  C   UNL d   1      47.652   2.949   8.340  0.00  0.00     0.094 A 
ATOM     11  C   UNL d   1      47.391   3.463   4.709  0.00  0.00     0.107 A 
ENDROOT
BRANCH   5  12
ATOM     12  C   UNL d   1      46.285   3.877   8.975  0.00  0.00     0.001 A 
ATOM     13  C   UNL d   1      46.656   4.578   9.585  0.00  0.00     0.053 A 
ATOM     14  C   UNL d   1      46.120   4.895  10.368  0.00  0.00     0.099 A 
ATOM     15  C   UNL d   1      45.213   4.511  10.541  0.00  0.00     0.101 A 
ATOM     16  C   UNL d   1      44.842   3.810   9.931  0.00  0.00     0.040 A 
ATOM     17  C   UNL d   1      45.378   3.494   9.149  0.00  0.00     0.017 A 
BRANCH  14  18
ATOM     18  O   UNL d   1      46.490   5.596  10.978  0.00  0.00    -0.358 OA
ATOM     19  H   UNL d   1      46.298   5.629  11.565  0.00  0.00     0.217 HD
ENDBRANCH  14  18
BRANCH  15  20
ATOM     20  O   UNL d   1      44.677   4.827  11.323  0.00  0.00    -0.353 OA
ATOM     21  C   UNL d   1      43.693   4.653  11.359  0.00  0.00     0.210 C 
ENDBRANCH  15  20
ENDBRANCH   5  12
BRANCH   6  22
ATOM     22  O   UNL d   1      49.248   2.016   5.916  0.00  0.00    -0.357 OA
ATOM     23  H   UNL d   1      49.652   1.927   5.454  0.00  0.00     0.218 HD
ENDBRANCH   6  22
BRANCH  11  24
ATOM     24  O   UNL d   1      47.128   3.736   3.783  0.00  0.00    -0.353 OA
ATOM     25  C   UNL d   1      46.384   4.390   3.647  0.00  0.00     0.210 C 
ENDBRANCH  11  24
BRANCH   9  26
ATOM     26  O   UNL d   1      48.722   2.561   4.065  0.00  0.00    -0.351 OA
ATOM     27  C   UNL d   1      48.575   1.644   3.695  0.00  0.00     0.210 C 
ENDBRANCH   9  26
TORSDOF 6
ENDMDL
MODEL 4
REMARK VINA RESULT:    -6.486     15.675     17.900
REMARK INTER + INTRA:          -3.358
REMARK INTER:                  -8.477
REMARK INTRA:                   5.119
REMARK UNBOUND:                 5.024
REMARK  6 active torsions:
REMARK  status: ('A' for Active; 'I' for Inactive)
REMARK    1  A    between atoms: O_2  and  C_15 
REMARK    2  A    between atoms: O_3  and  C_17 
REMARK    3  A    between atoms: O_4  and  C_11 
REMARK    4  A    between atoms: O_6  and  C_22 
REMARK    5  A    between atoms: O_7  and  C_20 
REMARK    6  A    between atoms: C_10  and  C_13 
ROOT
ATOM      1  O   UNL d   1      46.867  -6.102  23.673  0.00  0.00    -0.309 OA
ATOM      2  O   UNL d   1      46.429  -4.567  21.052  0.00  0.00    -0.287 OA
ATOM      3  C   UNL d   1      46.989  -4.602  22.730  0.00  0.00     0.084 A 
ATOM      4  C   UNL d   1      47.133  -5.098  23.585  0.00  0.00     0.096 A 
ATOM      5  C   UNL d   1      46.444  -6.594  22.858  0.00  0.00     0.090 A 
ATOM      6  C   UNL d   1      47.250  -3.639  22.660  0.00  0.00     0.119 A 
ATOM      7  C   UNL d   1      46.568  -5.074  21.902  0.00  0.00     0.190 A 
ATOM      8  C   UNL d   1      47.538  -4.632  24.372  0.00  0.00     0.078 A 
ATOM      9  C   UNL d   1      47.655  -3.173  23.447  0.00  0.00     0.136 A 
ATOM     10  C   UNL d   1      46.294  -6.076  21.966  0.00  0.00     0.094 A 
ATOM     11  C   UNL d   1      47.799  -3.669  24.303  0.00  0.00     0.107 A 
ENDROOT
BRANCH   5  12
ATOM     12  C   UNL d   1      46.185  -7.557  22.931  0.00  0.00     0.001 A 
ATOM     13  C   UNL d   1      45.220  -7.817  22.904  0.00  0.00     0.053 A 
ATOM     14  C   UNL d   1      44.959  -8.780  22.977  0.00  0.00     0.099 A 
ATOM     15  C   UNL d   1      45.665  -9.482  23.076  0.00  0.00     0.101 A 
ATOM     16  C   UNL d   1      46.630  -9.222  23.102  0.00  0.00     0.040 A 
ATOM     17  C   UNL d   1      46.889  -8.259  23.030  0.00  0.00     0.017 A 
BRANCH  14  18
ATOM     18  O   UNL d   1      43.994  -9.042  22.950  0.00  0.00    -0.358 OA
ATOM     19  H   UNL d   1      43.554  -8.614  23.030  0.00  0.00     0.217 HD
ENDBRANCH  14  18
BRANCH  15  20
ATOM     20  O   UNL d   1      45.405 -10.445  23.149  0.00  0.00    -0.353 OA
ATOM     21  C   UNL d   1      45.919 -11.059  23.747  0.00  0.00     0.210 C 
ENDBRANCH  15  20
ENDBRANCH   5  12
BRANCH   6  22
ATOM     22  O   UNL d   1      47.106  -3.142  21.805  0.00  0.00    -0.357 OA
ATOM     23  H   UNL d   1      46.812  -2.596  21.809  0.00  0.00     0.218 HD
ENDBRANCH   6  22
BRANCH  11  24
ATOM     24  O   UNL d   1      48.204  -3.203  25.089  0.00  0.00    -0.353 OA
ATOM     25  C   UNL d   1      48.456  -3.725  25.905  0.00  0.00     0.210 C 
ENDBRANCH  11  24
BRANCH   9  26
ATOM     26  O   UNL d   1      47.915  -2.210  23.378  0.00  0.00    -0.351 OA
ATOM     27  C   UNL d   1      47.218  -1.497  23.450  0.00  0.00     0.210 C 
ENDBRANCH   9  26
TORSDOF 6
ENDMDL
MODEL 5
REMARK VINA RESULT:    -6.461      2.428      4.110
REMARK INTER + INTRA:          -3.325
REMARK INTER:                  -8.360
REMARK INTRA:                   5.034
REMARK UNBOUND:                 5.024
REMARK  6 active torsions:
REMARK  status: ('A' for Active; 'I' for Inactive)
REMARK    1  A    between atoms: O_2  and  C_15 
REMARK    2  A    between atoms: O_3  and  C_17 
REMARK    3  A    between atoms: O_4  and  C_11 
REMARK    4  A    between atoms: O_6  and  C_22 
REMARK    5  A    between atoms: O_7  and  C_20 
REMARK    6  A    between atoms: C_10  and  C_13 
ROOT
ATOM      1  O   UNL d   1      46.664   4.250   7.224  0.00  0.00    -0.309 OA
ATOM      2  O   UNL d   1      45.536   6.557   5.545  0.00  0.00    -0.287 OA
ATOM      3  C   UNL d   1      46.286   4.957   5.639  0.00  0.00     0.084 A 
ATOM      4  C   UNL d   1      46.654   4.203   6.183  0.00  0.00     0.096 A 
ATOM      5  C   UNL d   1      46.286   5.093   7.704  0.00  0.00     0.090 A 
ATOM      6  C   UNL d   1      46.283   4.899   4.641  0.00  0.00     0.119 A 
ATOM      7  C   UNL d   1      45.902   5.810   6.099  0.00  0.00     0.190 A 
ATOM      8  C   UNL d   1      47.020   3.391   5.729  0.00  0.00     0.078 A 
ATOM      9  C   UNL d   1      46.648   4.087   4.187  0.00  0.00     0.136 A 
ATOM     10  C   UNL d   1      45.902   5.878   7.138  0.00  0.00     0.094 A 
ATOM     11  C   UNL d   1      47.017   3.333   4.731  0.00  0.00     0.107 A 
ENDROOT
BRANCH   5  12
ATOM     12  C   UNL d   1      46.290   5.148   8.703  0.00  0.00     0.001 A 
ATOM     13  C   UNL d   1      46.941   5.749   9.167  0.00  0.00     0.053 A 
ATOM     14  C   UNL d   1      46.946   5.804  10.166  0.00  0.00     0.099 A 
ATOM     15  C   UNL d   1      46.300   5.259  10.700  0.00  0.00     0.101 A 
ATOM     16  C   UNL d   1      45.649   4.658  10.235  0.00  0.00     0.040 A 
ATOM     17  C   UNL d   1      45.644   4.603   9.237  0.00  0.00     0.017 A 
BRANCH  14  18
ATOM     18  O   UNL d   1      47.597   6.405  10.631  0.00  0.00    -0.358 OA
ATOM     19  H   UNL d   1      48.179   6.449  10.426  0.00  0.00     0.217 HD
ENDBRANCH  14  18
BRANCH  15  20
ATOM     20  O   UNL d   1      46.304   5.314  11.698  0.00  0.00    -0.353 OA
ATOM     21  C   UNL d   1      45.705   4.721  12.235  0.00  0.00     0.210 C 
ENDBRANCH  15  20
ENDBRANCH   5  12
BRANCH   6  22
ATOM     22  O   UNL d   1      45.915   5.653   4.097  0.00  0.00    -0.357 OA
ATOM     23  H   UNL d   1      46.210   6.198   4.083  0.00  0.00     0.218 HD
ENDBRANCH   6  22
BRANCH  11  24
ATOM     24  O   UNL d   1      47.382   2.520   4.276  0.00  0.00    -0.353 OA
ATOM     25  C   UNL d   1      47.493   1.668   4.788  0.00  0.00     0.210 C 
ENDBRANCH  11  24
BRANCH   9  26
ATOM     26  O   UNL d   1      46.645   4.028   3.189  0.00  0.00    -0.351 OA
ATOM     27  C   UNL d   1      47.336   4.519   2.657  0.00  0.00     0.210 C 
ENDBRANCH   9  26
TORSDOF 6
ENDMDL
