MODEL 1
REMARK VINA RESULT:   -12.180      0.000      0.000
REMARK INTER + INTRA:          -7.679
REMARK INTER:                 -16.232
REMARK INTRA:                   8.554
REMARK UNBOUND:                 8.773
REMARK  9 active torsions:
REMARK  status: ('A' for Active; 'I' for Inactive)
REMARK    1  A    between atoms: O_3  and  C_17 
REMARK    2  A    between atoms: O_4  and  C_18 
REMARK    3  A    between atoms: O_5  and  C_19 
REMARK    4  A    between atoms: O_7  and  C_32 
REMARK    5  A    between atoms: O_9  and  C_36 
REMARK    6  A    between atoms: O_10  and  C_40 
REMARK    7  A    between atoms: C_11  and  C_13 
REMARK    8  A    between atoms: C_15  and  C_20 
REMARK    9  A    between atoms: C_22  and  C_29 
ROOT
ATOM      1  O   UNL d   1      15.473  17.232  12.058  0.00  0.00    -0.308 OA
ATOM      2  O   UNL d   1      14.661  16.721  14.973  0.00  0.00    -0.287 OA
ATOM      3  C   UNL d   1      14.204  18.448  11.962  0.00  0.00     0.045 A 
ATOM      4  C   UNL d   1      14.693  17.762  12.501  0.00  0.00     0.107 A 
ATOM      5  C   UNL d   1      14.431  17.593  13.451  0.00  0.00     0.082 A 
ATOM      6  C   UNL d   1      13.453  18.964  12.373  0.00  0.00     0.082 A 
ATOM      7  C   UNL d   1      13.680  18.109  13.862  0.00  0.00     0.085 A 
ATOM      8  C   UNL d   1      13.191  18.795  13.323  0.00  0.00     0.075 A 
ATOM      9  C   UNL d   1      15.987  16.516  12.613  0.00  0.00     0.090 A 
ATOM     10  C   UNL d   1      14.931  16.882  14.024  0.00  0.00     0.190 A 
ATOM     11  C   UNL d   1      15.714  16.339  13.603  0.00  0.00     0.094 A 
ENDROOT
BRANCH   3  12
ATOM     12  C   UNL d   1      14.466  18.617  11.011  0.00  0.00     0.014 A 
ATOM     13  C   UNL d   1      14.084  18.052  10.280  0.00  0.00     0.029 A 
ATOM     14  C   UNL d   1      14.346  18.221   9.329  0.00  0.00    -0.001 A 
ATOM     15  C   UNL d   1      14.989  18.955   9.111  0.00  0.00     0.017 A 
ATOM     16  C   UNL d   1      15.370  19.520   9.843  0.00  0.00     0.038 A 
ATOM     17  C   UNL d   1      15.109  19.351  10.793  0.00  0.00     0.076 A 
BRANCH  14  18
ATOM     18  C   UNL d   1      13.965  17.656   8.598  0.00  0.00     0.090 A 
ATOM     19  O   UNL d   1      13.124  17.937   8.135  0.00  0.00    -0.309 OA
ATOM     20  C   UNL d   1      12.743  17.372   7.404  0.00  0.00     0.095 A 
ATOM     21  C   UNL d   1      13.203  16.526   7.134  0.00  0.00     0.081 A 
ATOM     22  C   UNL d   1      11.866  17.678   6.931  0.00  0.00     0.075 A 
ATOM     23  C   UNL d   1      14.044  16.245   7.597  0.00  0.00     0.190 A 
ATOM     24  C   UNL d   1      12.818  15.927   6.374  0.00  0.00     0.085 A 
ATOM     25  O   UNL d   1      14.503  15.399   7.327  0.00  0.00    -0.287 OA
ATOM     26  C   UNL d   1      14.425  16.810   8.328  0.00  0.00     0.094 A 
ATOM     27  C   UNL d   1      11.942  16.214   5.887  0.00  0.00     0.074 A 
ATOM     28  C   UNL d   1      11.463  17.095   6.168  0.00  0.00     0.071 A 
BRANCH  24  29
ATOM     29  O   UNL d   1      13.285  15.083   6.112  0.00  0.00    -0.360 OA
ATOM     30  H   UNL d   1      13.545  15.033   5.551  0.00  0.00     0.217 HD
ENDBRANCH  24  29
BRANCH  28  31
ATOM     31  O   UNL d   1      10.622  17.380   5.708  0.00  0.00    -0.361 OA
ATOM     32  H   UNL d   1      10.236  17.778   5.985  0.00  0.00     0.217 HD
ENDBRANCH  28  31
ENDBRANCH  14  18
BRANCH  17  33
ATOM     33  O   UNL d   1      15.490  19.916  11.525  0.00  0.00    -0.360 OA
ATOM     34  H   UNL d   1      15.118  20.283  11.858  0.00  0.00     0.217 HD
ENDBRANCH  17  33
ENDBRANCH   3  12
BRANCH   6  35
ATOM     35  O   UNL d   1      12.964  19.650  11.834  0.00  0.00    -0.360 OA
ATOM     36  H   UNL d   1      12.372  19.781  11.963  0.00  0.00     0.217 HD
ENDBRANCH   6  35
BRANCH   9  37
ATOM     37  C   UNL d   1      16.738  16.001  12.198  0.00  0.00    -0.002 A 
ATOM     38  C   UNL d   1      17.524  16.486  11.815  0.00  0.00     0.017 A 
ATOM     39  C   UNL d   1      18.274  15.973  11.399  0.00  0.00     0.037 A 
ATOM     40  C   UNL d   1      18.239  14.974  11.368  0.00  0.00     0.065 A 
ATOM     41  C   UNL d   1      17.453  14.489  11.751  0.00  0.00     0.037 A 
ATOM     42  C   UNL d   1      16.702  15.003  12.167  0.00  0.00     0.017 A 
BRANCH  40  43
ATOM     43  O   UNL d   1      18.989  14.459  10.953  0.00  0.00    -0.361 OA
ATOM     44  H   UNL d   1      19.119  13.885  11.150  0.00  0.00     0.217 HD
ENDBRANCH  40  43
ENDBRANCH   9  37
BRANCH   7  45
ATOM     45  O   UNL d   1      13.418  17.940  14.812  0.00  0.00    -0.360 OA
ATOM     46  H   UNL d   1      12.942  17.565  14.940  0.00  0.00     0.217 HD
ENDBRANCH   7  45
TORSDOF 9
ENDMDL
MODEL 2
REMARK VINA RESULT:   -11.540      2.205      7.485
REMARK INTER + INTRA:          -6.814
REMARK INTER:                 -15.491
REMARK INTRA:                   8.677
REMARK UNBOUND:                 8.773
REMARK  9 active torsions:
REMARK  status: ('A' for Active; 'I' for Inactive)
REMARK    1  A    between atoms: O_3  and  C_17 
REMARK    2  A    between atoms: O_4  and  C_18 
REMARK    3  A    between atoms: O_5  and  C_19 
REMARK    4  A    between atoms: O_7  and  C_32 
REMARK    5  A    between atoms: O_9  and  C_36 
REMARK    6  A    between atoms: O_10  and  C_40 
REMARK    7  A    between atoms: C_11  and  C_13 
REMARK    8  A    between atoms: C_15  and  C_20 
REMARK    9  A    between atoms: C_22  and  C_29 
ROOT
ATOM      1  O   UNL d   1      12.769  17.576   5.388  0.00  0.00    -0.308 OA
ATOM      2  O   UNL d   1      10.323  17.383   3.545  0.00  0.00    -0.287 OA
ATOM      3  C   UNL d   1      12.155  16.187   6.278  0.00  0.00     0.045 A 
ATOM      4  C   UNL d   1      12.046  16.839   5.528  0.00  0.00     0.107 A 
ATOM      5  C   UNL d   1      11.250  16.780   4.926  0.00  0.00     0.082 A 
ATOM      6  C   UNL d   1      11.469  15.474   6.425  0.00  0.00     0.082 A 
ATOM      7  C   UNL d   1      10.564  16.067   5.073  0.00  0.00     0.085 A 
ATOM      8  C   UNL d   1      10.673  15.414   5.822  0.00  0.00     0.075 A 
ATOM      9  C   UNL d   1      12.662  18.259   4.609  0.00  0.00     0.090 A 
ATOM     10  C   UNL d   1      11.122  17.452   4.141  0.00  0.00     0.190 A 
ATOM     11  C   UNL d   1      11.832  18.197   3.981  0.00  0.00     0.094 A 
ENDROOT
BRANCH   3  12
ATOM     12  C   UNL d   1      12.951  16.246   6.880  0.00  0.00     0.014 A 
ATOM     13  C   UNL d   1      12.922  16.831   7.691  0.00  0.00     0.029 A 
ATOM     14  C   UNL d   1      13.718  16.891   8.293  0.00  0.00    -0.001 A 
ATOM     15  C   UNL d   1      14.543  16.366   8.085  0.00  0.00     0.017 A 
ATOM     16  C   UNL d   1      14.572  15.781   7.275  0.00  0.00     0.038 A 
ATOM     17  C   UNL d   1      13.776  15.721   6.672  0.00  0.00     0.076 A 
BRANCH  14  18
ATOM     18  C   UNL d   1      13.689  17.476   9.104  0.00  0.00     0.090 A 
ATOM     19  O   UNL d   1      14.059  17.146   9.972  0.00  0.00    -0.309 OA
ATOM     20  C   UNL d   1      14.029  17.731  10.783  0.00  0.00     0.095 A 
ATOM     21  C   UNL d   1      13.630  18.646  10.725  0.00  0.00     0.081 A 
ATOM     22  C   UNL d   1      14.419  17.373  11.681  0.00  0.00     0.075 A 
ATOM     23  C   UNL d   1      13.260  18.976   9.856  0.00  0.00     0.190 A 
ATOM     24  C   UNL d   1      13.593  19.267  11.560  0.00  0.00     0.085 A 
ATOM     25  O   UNL d   1      12.861  19.891   9.798  0.00  0.00    -0.287 OA
ATOM     26  C   UNL d   1      13.289  18.391   9.046  0.00  0.00     0.094 A 
ATOM     27  C   UNL d   1      13.976  18.930  12.469  0.00  0.00     0.074 A 
ATOM     28  C   UNL d   1      14.392  17.977  12.529  0.00  0.00     0.071 A 
BRANCH  24  29
ATOM     29  O   UNL d   1      13.191  20.180  11.491  0.00  0.00    -0.360 OA
ATOM     30  H   UNL d   1      12.627  20.289  11.725  0.00  0.00     0.217 HD
ENDBRANCH  24  29
BRANCH  28  31
ATOM     31  O   UNL d   1      14.763  17.643  13.396  0.00  0.00    -0.361 OA
ATOM     32  H   UNL d   1      14.642  17.064  13.582  0.00  0.00     0.217 HD
ENDBRANCH  28  31
ENDBRANCH  14  18
BRANCH  17  33
ATOM     33  O   UNL d   1      13.806  15.136   5.862  0.00  0.00    -0.360 OA
ATOM     34  H   UNL d   1      13.701  14.527   5.915  0.00  0.00     0.217 HD
ENDBRANCH  17  33
ENDBRANCH   3  12
BRANCH   6  35
ATOM     35  O   UNL d   1      11.579  14.821   7.174  0.00  0.00    -0.360 OA
ATOM     36  H   UNL d   1      11.493  14.216   7.073  0.00  0.00     0.217 HD
ENDBRANCH   6  35
BRANCH   9  37
ATOM     37  C   UNL d   1      13.350  18.970   4.465  0.00  0.00    -0.002 A 
ATOM     38  C   UNL d   1      13.258  19.855   4.923  0.00  0.00     0.017 A 
ATOM     39  C   UNL d   1      13.946  20.566   4.780  0.00  0.00     0.037 A 
ATOM     40  C   UNL d   1      14.726  20.393   4.179  0.00  0.00     0.065 A 
ATOM     41  C   UNL d   1      14.818  19.508   3.721  0.00  0.00     0.037 A 
ATOM     42  C   UNL d   1      14.130  18.797   3.865  0.00  0.00     0.017 A 
BRANCH  40  43
ATOM     43  O   UNL d   1      15.415  21.104   4.036  0.00  0.00    -0.361 OA
ATOM     44  H   UNL d   1      15.780  21.085   3.534  0.00  0.00     0.217 HD
ENDBRANCH  40  43
ENDBRANCH   9  37
BRANCH   7  45
ATOM     45  O   UNL d   1       9.768  16.007   4.470  0.00  0.00    -0.360 OA
ATOM     46  H   UNL d   1       9.756  15.588   4.013  0.00  0.00     0.217 HD
ENDBRANCH   7  45
TORSDOF 9
ENDMDL
MODEL 3
REMARK VINA RESULT:   -11.475      1.742      6.674
REMARK INTER + INTRA:          -6.727
REMARK INTER:                 -15.309
REMARK INTRA:                   8.582
REMARK UNBOUND:                 8.773
REMARK  9 active torsions:
REMARK  status: ('A' for Active; 'I' for Inactive)
REMARK    1  A    between atoms: O_3  and  C_17 
REMARK    2  A    between atoms: O_4  and  C_18 
REMARK    3  A    between atoms: O_5  and  C_19 
REMARK    4  A    between atoms: O_7  and  C_32 
REMARK    5  A    between atoms: O_9  and  C_36 
REMARK    6  A    between atoms: O_10  and  C_40 
REMARK    7  A    between atoms: C_11  and  C_13 
REMARK    8  A    between atoms: C_15  and  C_20 
REMARK    9  A    between atoms: C_22  and  C_29 
ROOT
ATOM      1  O   UNL d   1      13.663  18.244   8.731  0.00  0.00    -0.308 OA
ATOM      2  O   UNL d   1      12.478  16.854   6.265  0.00  0.00    -0.287 OA
ATOM      3  C   UNL d   1      15.094  17.233   8.562  0.00  0.00     0.045 A 
ATOM      4  C   UNL d   1      14.188  17.497   8.230  0.00  0.00     0.107 A 
ATOM      5  C   UNL d   1      13.799  17.047   7.427  0.00  0.00     0.082 A 
ATOM      6  C   UNL d   1      15.610  16.518   8.090  0.00  0.00     0.082 A 
ATOM      7  C   UNL d   1      14.315  16.332   6.955  0.00  0.00     0.085 A 
ATOM      8  C   UNL d   1      15.221  16.067   7.287  0.00  0.00     0.075 A 
ATOM      9  C   UNL d   1      12.719  18.525   8.392  0.00  0.00     0.090 A 
ATOM     10  C   UNL d   1      12.857  17.311   7.070  0.00  0.00     0.190 A 
ATOM     11  C   UNL d   1      12.313  18.055   7.555  0.00  0.00     0.094 A 
ENDROOT
BRANCH   3  12
ATOM     12  C   UNL d   1      15.483  17.684   9.365  0.00  0.00     0.014 A 
ATOM     13  C   UNL d   1      15.283  17.335  10.280  0.00  0.00     0.029 A 
ATOM     14  C   UNL d   1      15.672  17.786  11.084  0.00  0.00    -0.001 A 
ATOM     15  C   UNL d   1      16.261  18.586  10.972  0.00  0.00     0.017 A 
ATOM     16  C   UNL d   1      16.462  18.935  10.056  0.00  0.00     0.038 A 
ATOM     17  C   UNL d   1      16.072  18.484   9.253  0.00  0.00     0.076 A 
BRANCH  14  18
ATOM     18  C   UNL d   1      15.472  17.436  11.999  0.00  0.00     0.090 A 
ATOM     19  O   UNL d   1      14.699  17.804  12.516  0.00  0.00    -0.309 OA
ATOM     20  C   UNL d   1      14.499  17.455  13.432  0.00  0.00     0.095 A 
ATOM     21  C   UNL d   1      15.072  16.738  13.830  0.00  0.00     0.081 A 
ATOM     22  C   UNL d   1      13.690  17.847  13.959  0.00  0.00     0.075 A 
ATOM     23  C   UNL d   1      15.844  16.371  13.313  0.00  0.00     0.190 A 
ATOM     24  C   UNL d   1      14.875  16.364  14.782  0.00  0.00     0.085 A 
ATOM     25  O   UNL d   1      16.417  15.654  13.711  0.00  0.00    -0.287 OA
ATOM     26  C   UNL d   1      16.045  16.720  12.397  0.00  0.00     0.094 A 
ATOM     27  C   UNL d   1      14.072  16.742  15.327  0.00  0.00     0.074 A 
ATOM     28  C   UNL d   1      13.475  17.489  14.913  0.00  0.00     0.071 A 
BRANCH  24  29
ATOM     29  O   UNL d   1      15.455  15.648  15.171  0.00  0.00    -0.360 OA
ATOM     30  H   UNL d   1      15.434  15.073  14.938  0.00  0.00     0.217 HD
ENDBRANCH  24  29
BRANCH  28  31
ATOM     31  O   UNL d   1      12.701  17.859  15.427  0.00  0.00    -0.361 OA
ATOM     32  H   UNL d   1      12.412  17.507  15.848  0.00  0.00     0.217 HD
ENDBRANCH  28  31
ENDBRANCH  14  18
BRANCH  17  33
ATOM     33  O   UNL d   1      16.272  18.833   8.337  0.00  0.00    -0.360 OA
ATOM     34  H   UNL d   1      16.786  18.651   8.041  0.00  0.00     0.217 HD
ENDBRANCH  17  33
ENDBRANCH   3  12
BRANCH   6  35
ATOM     35  O   UNL d   1      16.515  16.254   8.422  0.00  0.00    -0.360 OA
ATOM     36  H   UNL d   1      17.019  16.381   8.084  0.00  0.00     0.217 HD
ENDBRANCH   6  35
BRANCH   9  37
ATOM     37  C   UNL d   1      12.206  19.240   8.866  0.00  0.00    -0.002 A 
ATOM     38  C   UNL d   1      11.700  19.924   8.340  0.00  0.00     0.017 A 
ATOM     39  C   UNL d   1      11.187  20.640   8.813  0.00  0.00     0.037 A 
ATOM     40  C   UNL d   1      11.180  20.672   9.813  0.00  0.00     0.065 A 
ATOM     41  C   UNL d   1      11.686  19.988  10.339  0.00  0.00     0.037 A 
ATOM     42  C   UNL d   1      12.199  19.272   9.864  0.00  0.00     0.017 A 
BRANCH  40  43
ATOM     43  O   UNL d   1      10.667  21.388  10.287  0.00  0.00    -0.361 OA
ATOM     44  H   UNL d   1      10.064  21.472  10.162  0.00  0.00     0.217 HD
ENDBRANCH  40  43
ENDBRANCH   9  37
BRANCH   7  45
ATOM     45  O   UNL d   1      13.926  15.881   6.152  0.00  0.00    -0.360 OA
ATOM     46  H   UNL d   1      14.138  15.326   5.974  0.00  0.00     0.217 HD
ENDBRANCH   7  45
TORSDOF 9
ENDMDL
MODEL 4
REMARK VINA RESULT:   -11.248      1.283      3.739
REMARK INTER + INTRA:          -6.420
REMARK INTER:                 -15.527
REMARK INTRA:                   9.107
REMARK UNBOUND:                 8.773
REMARK  9 active torsions:
REMARK  status: ('A' for Active; 'I' for Inactive)
REMARK    1  A    between atoms: O_3  and  C_17 
REMARK    2  A    between atoms: O_4  and  C_18 
REMARK    3  A    between atoms: O_5  and  C_19 
REMARK    4  A    between atoms: O_7  and  C_32 
REMARK    5  A    between atoms: O_9  and  C_36 
REMARK    6  A    between atoms: O_10  and  C_40 
REMARK    7  A    between atoms: C_11  and  C_13 
REMARK    8  A    between atoms: C_15  and  C_20 
REMARK    9  A    between atoms: C_22  and  C_29 
ROOT
ATOM      1  O   UNL d   1      15.302  17.363  11.575  0.00  0.00    -0.308 OA
ATOM      2  O   UNL d   1      16.621  15.349  13.480  0.00  0.00    -0.287 OA
ATOM      3  C   UNL d   1      16.359  16.779  10.294  0.00  0.00     0.045 A 
ATOM      4  C   UNL d   1      16.060  16.727  11.247  0.00  0.00     0.107 A 
ATOM      5  C   UNL d   1      16.487  16.073  11.870  0.00  0.00     0.082 A 
ATOM      6  C   UNL d   1      17.085  16.175   9.965  0.00  0.00     0.082 A 
ATOM      7  C   UNL d   1      17.214  15.469  11.541  0.00  0.00     0.085 A 
ATOM      8  C   UNL d   1      17.513  15.520  10.588  0.00  0.00     0.075 A 
ATOM      9  C   UNL d   1      14.986  17.315  12.566  0.00  0.00     0.090 A 
ATOM     10  C   UNL d   1      16.186  16.008  12.865  0.00  0.00     0.190 A 
ATOM     11  C   UNL d   1      15.431  16.633  13.216  0.00  0.00     0.094 A 
ENDROOT
BRANCH   3  12
ATOM     12  C   UNL d   1      15.932  17.433   9.670  0.00  0.00     0.014 A 
ATOM     13  C   UNL d   1      15.166  17.148   9.094  0.00  0.00     0.029 A 
ATOM     14  C   UNL d   1      14.739  17.803   8.470  0.00  0.00    -0.001 A 
ATOM     15  C   UNL d   1      15.078  18.743   8.423  0.00  0.00     0.017 A 
ATOM     16  C   UNL d   1      15.843  19.028   8.999  0.00  0.00     0.038 A 
ATOM     17  C   UNL d   1      16.271  18.373   9.623  0.00  0.00     0.076 A 
BRANCH  14  18
ATOM     18  C   UNL d   1      13.973  17.518   7.894  0.00  0.00     0.090 A 
ATOM     19  O   UNL d   1      14.036  16.675   7.360  0.00  0.00    -0.309 OA
ATOM     20  C   UNL d   1      13.270  16.390   6.783  0.00  0.00     0.095 A 
ATOM     21  C   UNL d   1      12.441  16.948   6.742  0.00  0.00     0.081 A 
ATOM     22  C   UNL d   1      13.350  15.510   6.232  0.00  0.00     0.075 A 
ATOM     23  C   UNL d   1      12.378  17.791   7.276  0.00  0.00     0.190 A 
ATOM     24  C   UNL d   1      11.635  16.664   6.146  0.00  0.00     0.085 A 
ATOM     25  O   UNL d   1      11.549  18.349   7.234  0.00  0.00    -0.287 OA
ATOM     26  C   UNL d   1      13.144  18.076   7.852  0.00  0.00     0.094 A 
ATOM     27  C   UNL d   1      11.693  15.787   5.586  0.00  0.00     0.074 A 
ATOM     28  C   UNL d   1      12.556  15.206   5.629  0.00  0.00     0.071 A 
BRANCH  24  29
ATOM     29  O   UNL d   1      10.811  17.230   6.112  0.00  0.00    -0.360 OA
ATOM     30  H   UNL d   1      10.254  16.972   6.204  0.00  0.00     0.217 HD
ENDBRANCH  24  29
BRANCH  28  31
ATOM     31  O   UNL d   1      12.623  14.363   5.096  0.00  0.00    -0.361 OA
ATOM     32  H   UNL d   1      12.994  14.338   4.600  0.00  0.00     0.217 HD
ENDBRANCH  28  31
ENDBRANCH  14  18
BRANCH  17  33
ATOM     33  O   UNL d   1      17.037  18.658  10.199  0.00  0.00    -0.360 OA
ATOM     34  H   UNL d   1      16.989  19.168  10.548  0.00  0.00     0.217 HD
ENDBRANCH  17  33
ENDBRANCH   3  12
BRANCH   6  35
ATOM     35  O   UNL d   1      17.384  16.226   9.012  0.00  0.00    -0.360 OA
ATOM     36  H   UNL d   1      16.971  16.333   8.562  0.00  0.00     0.217 HD
ENDBRANCH   6  35
BRANCH   9  37
ATOM     37  C   UNL d   1      14.259  17.920  12.891  0.00  0.00    -0.002 A 
ATOM     38  C   UNL d   1      13.910  17.825  13.824  0.00  0.00     0.017 A 
ATOM     39  C   UNL d   1      13.183  18.430  14.150  0.00  0.00     0.037 A 
ATOM     40  C   UNL d   1      12.806  19.130  13.543  0.00  0.00     0.065 A 
ATOM     41  C   UNL d   1      13.156  19.225  12.611  0.00  0.00     0.037 A 
ATOM     42  C   UNL d   1      13.882  18.620  12.286  0.00  0.00     0.017 A 
BRANCH  40  43
ATOM     43  O   UNL d   1      12.080  19.735  13.869  0.00  0.00    -0.361 OA
ATOM     44  H   UNL d   1      11.726  19.565  14.350  0.00  0.00     0.217 HD
ENDBRANCH  40  43
ENDBRANCH   9  37
BRANCH   7  45
ATOM     45  O   UNL d   1      17.641  14.814  12.164  0.00  0.00    -0.360 OA
ATOM     46  H   UNL d   1      17.510  14.832  12.770  0.00  0.00     0.217 HD
ENDBRANCH   7  45
TORSDOF 9
ENDMDL
MODEL 5
REMARK VINA RESULT:   -10.944      1.764      4.189
REMARK INTER + INTRA:          -6.009
REMARK INTER:                 -14.675
REMARK INTRA:                   8.666
REMARK UNBOUND:                 8.773
REMARK  9 active torsions:
REMARK  status: ('A' for Active; 'I' for Inactive)
REMARK    1  A    between atoms: O_3  and  C_17 
REMARK    2  A    between atoms: O_4  and  C_18 
REMARK    3  A    between atoms: O_5  and  C_19 
REMARK    4  A    between atoms: O_7  and  C_32 
REMARK    5  A    between atoms: O_9  and  C_36 
REMARK    6  A    between atoms: O_10  and  C_40 
REMARK    7  A    between atoms: C_11  and  C_13 
REMARK    8  A    between atoms: C_15  and  C_20 
REMARK    9  A    between atoms: C_22  and  C_29 
ROOT
ATOM      1  O   UNL d   1      14.433  18.998  10.227  0.00  0.00    -0.308 OA
ATOM      2  O   UNL d   1      14.070  19.486  13.235  0.00  0.00    -0.287 OA
ATOM      3  C   UNL d   1      14.721  17.298  10.580  0.00  0.00     0.045 A 
ATOM      4  C   UNL d   1      14.518  18.218  10.913  0.00  0.00     0.107 A 
ATOM      5  C   UNL d   1      14.399  18.381  11.892  0.00  0.00     0.082 A 
ATOM      6  C   UNL d   1      14.805  16.540  11.227  0.00  0.00     0.082 A 
ATOM      7  C   UNL d   1      14.483  17.623  12.539  0.00  0.00     0.085 A 
ATOM      8  C   UNL d   1      14.686  16.703  12.206  0.00  0.00     0.075 A 
ATOM      9  C   UNL d   1      14.221  19.960  10.566  0.00  0.00     0.090 A 
ATOM     10  C   UNL d   1      14.187  19.335  12.253  0.00  0.00     0.190 A 
ATOM     11  C   UNL d   1      14.098  20.130  11.586  0.00  0.00     0.094 A 
ENDROOT
BRANCH   3  12
ATOM     12  C   UNL d   1      14.840  17.135   9.601  0.00  0.00     0.014 A 
ATOM     13  C   UNL d   1      14.039  17.012   9.013  0.00  0.00     0.029 A 
ATOM     14  C   UNL d   1      14.158  16.849   8.034  0.00  0.00    -0.001 A 
ATOM     15  C   UNL d   1      15.077  16.809   7.642  0.00  0.00     0.017 A 
ATOM     16  C   UNL d   1      15.877  16.931   8.229  0.00  0.00     0.038 A 
ATOM     17  C   UNL d   1      15.758  17.094   9.208  0.00  0.00     0.076 A 
BRANCH  14  18
ATOM     18  C   UNL d   1      13.358  16.727   7.447  0.00  0.00     0.090 A 
ATOM     19  O   UNL d   1      13.172  15.834   7.036  0.00  0.00    -0.309 OA
ATOM     20  C   UNL d   1      12.371  15.712   6.449  0.00  0.00     0.095 A 
ATOM     21  C   UNL d   1      11.758  16.482   6.272  0.00  0.00     0.081 A 
ATOM     22  C   UNL d   1      12.190  14.776   6.027  0.00  0.00     0.075 A 
ATOM     23  C   UNL d   1      11.945  17.374   6.683  0.00  0.00     0.190 A 
ATOM     24  C   UNL d   1      10.921  16.370   5.663  0.00  0.00     0.085 A 
ATOM     25  O   UNL d   1      11.331  18.144   6.507  0.00  0.00    -0.287 OA
ATOM     26  C   UNL d   1      12.745  17.497   7.271  0.00  0.00     0.094 A 
ATOM     27  C   UNL d   1      10.720  15.443   5.231  0.00  0.00     0.074 A 
ATOM     28  C   UNL d   1      11.358  14.641   5.415  0.00  0.00     0.071 A 
BRANCH  24  29
ATOM     29  O   UNL d   1      10.314  17.146   5.494  0.00  0.00    -0.360 OA
ATOM     30  H   UNL d   1       9.699  17.067   5.501  0.00  0.00     0.217 HD
ENDBRANCH  24  29
BRANCH  28  31
ATOM     31  O   UNL d   1      11.175  13.747   5.005  0.00  0.00    -0.361 OA
ATOM     32  H   UNL d   1      11.635  13.337   4.938  0.00  0.00     0.217 HD
ENDBRANCH  28  31
ENDBRANCH  14  18
BRANCH  17  33
ATOM     33  O   UNL d   1      16.559  17.217   9.796  0.00  0.00    -0.360 OA
ATOM     34  H   UNL d   1      16.777  17.786   9.908  0.00  0.00     0.217 HD
ENDBRANCH  17  33
ENDBRANCH   3  12
BRANCH   6  35
ATOM     35  O   UNL d   1      15.008  15.619  10.894  0.00  0.00    -0.360 OA
ATOM     36  H   UNL d   1      15.395  15.253  11.212  0.00  0.00     0.217 HD
ENDBRANCH   6  35
BRANCH   9  37
ATOM     37  C   UNL d   1      14.138  20.715   9.915  0.00  0.00    -0.002 A 
ATOM     38  C   UNL d   1      14.880  21.380   9.824  0.00  0.00     0.017 A 
ATOM     39  C   UNL d   1      14.797  22.135   9.174  0.00  0.00     0.037 A 
ATOM     40  C   UNL d   1      13.973  22.226   8.616  0.00  0.00     0.065 A 
ATOM     41  C   UNL d   1      13.231  21.561   8.707  0.00  0.00     0.037 A 
ATOM     42  C   UNL d   1      13.314  20.806   9.357  0.00  0.00     0.017 A 
BRANCH  40  43
ATOM     43  O   UNL d   1      13.889  22.981   7.965  0.00  0.00    -0.361 OA
ATOM     44  H   UNL d   1      14.390  23.312   7.809  0.00  0.00     0.217 HD
ENDBRANCH  40  43
ENDBRANCH   9  37
BRANCH   7  45
ATOM     45  O   UNL d   1      14.364  17.786  13.518  0.00  0.00    -0.360 OA
ATOM     46  H   UNL d   1      13.878  18.113  13.722  0.00  0.00     0.217 HD
ENDBRANCH   7  45
TORSDOF 9
ENDMDL
