MODEL 1
REMARK VINA RESULT:    -9.161      0.000      0.000
REMARK INTER + INTRA:          -9.080
REMARK INTER:                 -10.909
REMARK INTRA:                   1.828
REMARK UNBOUND:                 1.955
REMARK  5 active torsions:
REMARK  status: ('A' for Active; 'I' for Inactive)
REMARK    1  A    between atoms: O_2  and  C_13 
REMARK    2  A    between atoms: O_3  and  C_19 
REMARK    3  A    between atoms: O_5  and  C_17 
REMARK    4  A    between atoms: O_6  and  C_21 
REMARK    5  A    between atoms: C_8  and  C_10 
ROOT
ATOM      1  O   UNL d   1     -11.837 -14.823 -17.675  0.00  0.00    -0.309 OA
ATOM      2  O   UNL d   1      -9.112 -13.634 -18.077  0.00  0.00    -0.287 OA
ATOM      3  C   UNL d   1     -10.384 -14.684 -18.606  0.00  0.00     0.081 A 
ATOM      4  C   UNL d   1     -11.474 -14.169 -17.011  0.00  0.00     0.090 A 
ATOM      5  C   UNL d   1     -11.292 -15.080 -18.472  0.00  0.00     0.095 A 
ATOM      6  C   UNL d   1     -10.021 -14.030 -17.943  0.00  0.00     0.190 A 
ATOM      7  C   UNL d   1     -10.566 -13.772 -17.145  0.00  0.00     0.094 A 
ATOM      8  C   UNL d   1      -9.805 -14.943 -19.432  0.00  0.00     0.085 A 
ATOM      9  C   UNL d   1     -11.684 -15.763 -19.155  0.00  0.00     0.075 A 
ATOM     10  C   UNL d   1     -11.122 -16.036 -19.988  0.00  0.00     0.071 A 
ATOM     11  C   UNL d   1     -10.176 -15.624 -20.128  0.00  0.00     0.074 A 
ENDROOT
BRANCH   4  12
ATOM     12  C   UNL d   1     -12.019 -13.911 -16.213  0.00  0.00     0.001 A 
ATOM     13  C   UNL d   1     -12.025 -14.495 -15.402  0.00  0.00     0.054 A 
ATOM     14  C   UNL d   1     -12.571 -14.237 -14.604  0.00  0.00     0.102 A 
ATOM     15  C   UNL d   1     -13.110 -13.396 -14.618  0.00  0.00     0.099 A 
ATOM     16  C   UNL d   1     -13.104 -12.811 -15.430  0.00  0.00     0.040 A 
ATOM     17  C   UNL d   1     -12.559 -13.069 -16.227  0.00  0.00     0.017 A 
BRANCH  14  18
ATOM     18  O   UNL d   1     -12.576 -14.822 -13.792  0.00  0.00    -0.353 OA
ATOM     19  C   UNL d   1     -12.046 -15.670 -13.783  0.00  0.00     0.210 C 
ENDBRANCH  14  18
BRANCH  15  20
ATOM     20  O   UNL d   1     -13.655 -13.138 -13.820  0.00  0.00    -0.358 OA
ATOM     21  H   UNL d   1     -13.971 -12.604 -13.820  0.00  0.00     0.217 HD
ENDBRANCH  15  20
ENDBRANCH   4  12
BRANCH   8  22
ATOM     22  O   UNL d   1      -8.898 -14.540 -19.556  0.00  0.00    -0.360 OA
ATOM     23  H   UNL d   1      -8.708 -14.374 -20.122  0.00  0.00     0.217 HD
ENDBRANCH   8  22
BRANCH  10  24
ATOM     24  O   UNL d   1     -11.489 -16.691 -20.650  0.00  0.00    -0.361 OA
ATOM     25  H   UNL d   1     -11.349 -16.635 -21.251  0.00  0.00     0.217 HD
ENDBRANCH  10  24
TORSDOF 5
ENDMDL
MODEL 2
REMARK VINA RESULT:    -8.715     16.496     18.573
REMARK INTER + INTRA:          -8.543
REMARK INTER:                 -10.417
REMARK INTRA:                   1.873
REMARK UNBOUND:                 1.955
REMARK  5 active torsions:
REMARK  status: ('A' for Active; 'I' for Inactive)
REMARK    1  A    between atoms: O_2  and  C_13 
REMARK    2  A    between atoms: O_3  and  C_19 
REMARK    3  A    between atoms: O_5  and  C_17 
REMARK    4  A    between atoms: O_6  and  C_21 
REMARK    5  A    between atoms: C_8  and  C_10 
ROOT
ATOM      1  O   UNL d   1     -28.897 -13.375 -16.323  0.00  0.00    -0.309 OA
ATOM      2  O   UNL d   1     -29.160 -10.964 -14.557  0.00  0.00    -0.287 OA
ATOM      3  C   UNL d   1     -28.302 -12.394 -15.026  0.00  0.00     0.081 A 
ATOM      4  C   UNL d   1     -29.667 -12.749 -16.443  0.00  0.00     0.090 A 
ATOM      5  C   UNL d   1     -28.214 -13.198 -15.614  0.00  0.00     0.095 A 
ATOM      6  C   UNL d   1     -29.072 -11.768 -15.146  0.00  0.00     0.190 A 
ATOM      7  C   UNL d   1     -29.755 -11.945 -15.855  0.00  0.00     0.094 A 
ATOM      8  C   UNL d   1     -27.599 -12.197 -14.284  0.00  0.00     0.085 A 
ATOM      9  C   UNL d   1     -27.418 -13.860 -15.501  0.00  0.00     0.075 A 
ATOM     10  C   UNL d   1     -26.702 -13.681 -14.765  0.00  0.00     0.071 A 
ATOM     11  C   UNL d   1     -26.794 -12.845 -14.152  0.00  0.00     0.074 A 
ENDROOT
BRANCH   4  12
ATOM     12  C   UNL d   1     -30.350 -12.927 -17.152  0.00  0.00     0.001 A 
ATOM     13  C   UNL d   1     -31.009 -13.670 -17.037  0.00  0.00     0.054 A 
ATOM     14  C   UNL d   1     -31.692 -13.847 -17.745  0.00  0.00     0.102 A 
ATOM     15  C   UNL d   1     -31.716 -13.281 -18.569  0.00  0.00     0.099 A 
ATOM     16  C   UNL d   1     -31.057 -12.538 -18.685  0.00  0.00     0.040 A 
ATOM     17  C   UNL d   1     -30.374 -12.360 -17.976  0.00  0.00     0.017 A 
BRANCH  14  18
ATOM     18  O   UNL d   1     -32.350 -14.591 -17.630  0.00  0.00    -0.353 OA
ATOM     19  C   UNL d   1     -32.162 -15.330 -16.983  0.00  0.00     0.210 C 
ENDBRANCH  14  18
BRANCH  15  20
ATOM     20  O   UNL d   1     -32.398 -13.459 -19.278  0.00  0.00    -0.358 OA
ATOM     21  H   UNL d   1     -32.728 -12.990 -19.515  0.00  0.00     0.217 HD
ENDBRANCH  15  20
ENDBRANCH   4  12
BRANCH   8  22
ATOM     22  O   UNL d   1     -27.696 -11.390 -13.701  0.00  0.00    -0.360 OA
ATOM     23  H   UNL d   1     -27.682 -11.450 -13.084  0.00  0.00     0.217 HD
ENDBRANCH   8  22
BRANCH  10  24
ATOM     24  O   UNL d   1     -25.933 -14.310 -14.648  0.00  0.00    -0.361 OA
ATOM     25  H   UNL d   1     -25.642 -14.539 -15.146  0.00  0.00     0.217 HD
ENDBRANCH  10  24
TORSDOF 5
ENDMDL
MODEL 3
REMARK VINA RESULT:    -8.659      1.335      5.197
REMARK INTER + INTRA:          -8.475
REMARK INTER:                 -10.489
REMARK INTRA:                   2.014
REMARK UNBOUND:                 1.955
REMARK  5 active torsions:
REMARK  status: ('A' for Active; 'I' for Inactive)
REMARK    1  A    between atoms: O_2  and  C_13 
REMARK    2  A    between atoms: O_3  and  C_19 
REMARK    3  A    between atoms: O_5  and  C_17 
REMARK    4  A    between atoms: O_6  and  C_21 
REMARK    5  A    between atoms: C_8  and  C_10 
ROOT
ATOM      1  O   UNL d   1     -11.222 -14.530 -15.941  0.00  0.00    -0.309 OA
ATOM      2  O   UNL d   1     -13.304 -12.475 -15.278  0.00  0.00    -0.287 OA
ATOM      3  C   UNL d   1     -11.991 -13.492 -14.787  0.00  0.00     0.081 A 
ATOM      4  C   UNL d   1     -11.841 -14.198 -16.652  0.00  0.00     0.090 A 
ATOM      5  C   UNL d   1     -11.297 -14.177 -15.008  0.00  0.00     0.095 A 
ATOM      6  C   UNL d   1     -12.610 -13.160 -15.499  0.00  0.00     0.190 A 
ATOM      7  C   UNL d   1     -12.535 -13.513 -16.431  0.00  0.00     0.094 A 
ATOM      8  C   UNL d   1     -12.081 -13.116 -13.820  0.00  0.00     0.085 A 
ATOM      9  C   UNL d   1     -10.645 -14.533 -14.278  0.00  0.00     0.075 A 
ATOM     10  C   UNL d   1     -10.717 -14.170 -13.304  0.00  0.00     0.071 A 
ATOM     11  C   UNL d   1     -11.440 -13.457 -13.074  0.00  0.00     0.074 A 
ENDROOT
BRANCH   4  12
ATOM     12  C   UNL d   1     -11.766 -14.551 -17.585  0.00  0.00     0.001 A 
ATOM     13  C   UNL d   1     -10.872 -14.603 -18.030  0.00  0.00     0.054 A 
ATOM     14  C   UNL d   1     -10.796 -14.956 -18.962  0.00  0.00     0.102 A 
ATOM     15  C   UNL d   1     -11.616 -15.257 -19.450  0.00  0.00     0.099 A 
ATOM     16  C   UNL d   1     -12.510 -15.205 -19.006  0.00  0.00     0.040 A 
ATOM     17  C   UNL d   1     -12.585 -14.852 -18.073  0.00  0.00     0.017 A 
BRANCH  14  18
ATOM     18  O   UNL d   1      -9.902 -15.007 -19.407  0.00  0.00    -0.353 OA
ATOM     19  C   UNL d   1      -9.113 -14.549 -18.997  0.00  0.00     0.210 C 
ENDBRANCH  14  18
BRANCH  15  20
ATOM     20  O   UNL d   1     -11.540 -15.610 -20.383  0.00  0.00    -0.358 OA
ATOM     21  H   UNL d   1     -11.587 -15.223 -20.865  0.00  0.00     0.217 HD
ENDBRANCH  15  20
ENDBRANCH   4  12
BRANCH   8  22
ATOM     22  O   UNL d   1     -12.779 -12.431 -13.611  0.00  0.00    -0.360 OA
ATOM     23  H   UNL d   1     -12.805 -12.179 -13.045  0.00  0.00     0.217 HD
ENDBRANCH   8  22
BRANCH  10  24
ATOM     24  O   UNL d   1     -10.096 -14.505 -12.595  0.00  0.00    -0.361 OA
ATOM     25  H   UNL d   1     -10.313 -14.635 -12.029  0.00  0.00     0.217 HD
ENDBRANCH  10  24
TORSDOF 5
ENDMDL
MODEL 4
REMARK VINA RESULT:    -8.557      1.751      5.040
REMARK INTER + INTRA:          -8.352
REMARK INTER:                 -10.619
REMARK INTRA:                   2.266
REMARK UNBOUND:                 1.955
REMARK  5 active torsions:
REMARK  status: ('A' for Active; 'I' for Inactive)
REMARK    1  A    between atoms: O_2  and  C_13 
REMARK    2  A    between atoms: O_3  and  C_19 
REMARK    3  A    between atoms: O_5  and  C_17 
REMARK    4  A    between atoms: O_6  and  C_21 
REMARK    5  A    between atoms: C_8  and  C_10 
ROOT
ATOM      1  O   UNL d   1     -11.971 -13.894 -15.958  0.00  0.00    -0.309 OA
ATOM      2  O   UNL d   1      -9.313 -14.435 -14.677  0.00  0.00    -0.287 OA
ATOM      3  C   UNL d   1     -10.926 -13.814 -14.578  0.00  0.00     0.081 A 
ATOM      4  C   UNL d   1     -11.243 -14.335 -16.483  0.00  0.00     0.090 A 
ATOM      5  C   UNL d   1     -11.813 -13.633 -15.005  0.00  0.00     0.095 A 
ATOM      6  C   UNL d   1     -10.199 -14.254 -15.104  0.00  0.00     0.190 A 
ATOM      7  C   UNL d   1     -10.357 -14.515 -16.056  0.00  0.00     0.094 A 
ATOM      8  C   UNL d   1     -10.747 -13.548 -13.588  0.00  0.00     0.085 A 
ATOM      9  C   UNL d   1     -12.580 -13.175 -14.471  0.00  0.00     0.075 A 
ATOM     10  C   UNL d   1     -12.423 -12.901 -13.478  0.00  0.00     0.071 A 
ATOM     11  C   UNL d   1     -11.500 -13.089 -13.034  0.00  0.00     0.074 A 
ENDROOT
BRANCH   4  12
ATOM     12  C   UNL d   1     -11.402 -14.595 -17.436  0.00  0.00     0.001 A 
ATOM     13  C   UNL d   1     -12.274 -14.379 -17.874  0.00  0.00     0.054 A 
ATOM     14  C   UNL d   1     -12.433 -14.640 -18.827  0.00  0.00     0.102 A 
ATOM     15  C   UNL d   1     -11.719 -15.116 -19.340  0.00  0.00     0.099 A 
ATOM     16  C   UNL d   1     -10.847 -15.332 -18.901  0.00  0.00     0.040 A 
ATOM     17  C   UNL d   1     -10.688 -15.071 -17.949  0.00  0.00     0.017 A 
BRANCH  14  18
ATOM     18  O   UNL d   1     -13.305 -14.424 -19.266  0.00  0.00    -0.353 OA
ATOM     19  C   UNL d   1     -14.041 -14.003 -18.735  0.00  0.00     0.210 C 
ENDBRANCH  14  18
BRANCH  15  20
ATOM     20  O   UNL d   1     -11.877 -15.376 -20.293  0.00  0.00    -0.358 OA
ATOM     21  H   UNL d   1     -11.990 -14.940 -20.719  0.00  0.00     0.217 HD
ENDBRANCH  15  20
ENDBRANCH   4  12
BRANCH   8  22
ATOM     22  O   UNL d   1      -9.857 -13.733 -13.171  0.00  0.00    -0.360 OA
ATOM     23  H   UNL d   1      -9.447 -13.274 -13.098  0.00  0.00     0.217 HD
ENDBRANCH   8  22
BRANCH  10  24
ATOM     24  O   UNL d   1     -13.153 -12.460 -12.956  0.00  0.00    -0.361 OA
ATOM     25  H   UNL d   1     -13.714 -12.388 -13.210  0.00  0.00     0.217 HD
ENDBRANCH  10  24
TORSDOF 5
ENDMDL
MODEL 5
REMARK VINA RESULT:    -8.122      2.175      5.122
REMARK INTER + INTRA:          -7.828
REMARK INTER:                  -9.684
REMARK INTRA:                   1.855
REMARK UNBOUND:                 1.955
REMARK  5 active torsions:
REMARK  status: ('A' for Active; 'I' for Inactive)
REMARK    1  A    between atoms: O_2  and  C_13 
REMARK    2  A    between atoms: O_3  and  C_19 
REMARK    3  A    between atoms: O_5  and  C_17 
REMARK    4  A    between atoms: O_6  and  C_21 
REMARK    5  A    between atoms: C_8  and  C_10 
ROOT
ATOM      1  O   UNL d   1     -10.078 -14.744 -17.862  0.00  0.00    -0.309 OA
ATOM      2  O   UNL d   1     -12.206 -15.486 -19.842  0.00  0.00    -0.287 OA
ATOM      3  C   UNL d   1     -11.720 -14.651 -18.405  0.00  0.00     0.081 A 
ATOM      4  C   UNL d   1      -9.854 -15.331 -18.640  0.00  0.00     0.090 A 
ATOM      5  C   UNL d   1     -11.011 -14.404 -17.745  0.00  0.00     0.095 A 
ATOM      6  C   UNL d   1     -11.497 -15.239 -19.182  0.00  0.00     0.190 A 
ATOM      7  C   UNL d   1     -10.564 -15.579 -19.300  0.00  0.00     0.094 A 
ATOM      8  C   UNL d   1     -12.696 -14.304 -18.295  0.00  0.00     0.085 A 
ATOM      9  C   UNL d   1     -11.228 -13.792 -16.930  0.00  0.00     0.075 A 
ATOM     10  C   UNL d   1     -12.198 -13.434 -16.800  0.00  0.00     0.071 A 
ATOM     11  C   UNL d   1     -12.937 -13.692 -17.487  0.00  0.00     0.074 A 
ENDROOT
BRANCH   4  12
ATOM     12  C   UNL d   1      -8.922 -15.672 -18.758  0.00  0.00     0.001 A 
ATOM     13  C   UNL d   1      -8.595 -16.437 -18.204  0.00  0.00     0.054 A 
ATOM     14  C   UNL d   1      -7.662 -16.778 -18.321  0.00  0.00     0.102 A 
ATOM     15  C   UNL d   1      -7.056 -16.352 -18.993  0.00  0.00     0.099 A 
ATOM     16  C   UNL d   1      -7.382 -15.586 -19.547  0.00  0.00     0.040 A 
ATOM     17  C   UNL d   1      -8.315 -15.246 -19.429  0.00  0.00     0.017 A 
BRANCH  14  18
ATOM     18  O   UNL d   1      -7.335 -17.543 -17.767  0.00  0.00    -0.353 OA
ATOM     19  C   UNL d   1      -7.809 -17.785 -16.920  0.00  0.00     0.210 C 
ENDBRANCH  14  18
BRANCH  15  20
ATOM     20  O   UNL d   1      -6.123 -16.692 -19.110  0.00  0.00    -0.358 OA
ATOM     21  H   UNL d   1      -5.991 -17.286 -18.989  0.00  0.00     0.217 HD
ENDBRANCH  15  20
ENDBRANCH   4  12
BRANCH   8  22
ATOM     22  O   UNL d   1     -13.398 -14.558 -18.961  0.00  0.00    -0.360 OA
ATOM     23  H   UNL d   1     -13.733 -15.073 -18.877  0.00  0.00     0.217 HD
ENDBRANCH   8  22
BRANCH  10  24
ATOM     24  O   UNL d   1     -12.417 -12.847 -16.021  0.00  0.00    -0.361 OA
ATOM     25  H   UNL d   1     -12.022 -12.803 -15.546  0.00  0.00     0.217 HD
ENDBRANCH  10  24
TORSDOF 5
ENDMDL
