MODEL 1
REMARK VINA RESULT:    -5.840      0.000      0.000
REMARK INTER + INTRA:          -6.407
REMARK INTER:                  -7.357
REMARK INTRA:                   0.949
REMARK UNBOUND:                 0.969
REMARK  6 active torsions:
REMARK  status: ('A' for Active; 'I' for Inactive)
REMARK    1  A    between atoms: O_1  and  C_8 
REMARK    2  A    between atoms: O_2  and  C_9 
REMARK    3  A    between atoms: O_3  and  C_13 
REMARK    4  A    between atoms: C_5  and  C_11 
REMARK    5  A    between atoms: C_11  and  C_12 
REMARK    6  A    between atoms: C_12  and  C_13 
ROOT
ATOM      1  C   UNL d   1      -7.895 -26.577 -39.485  0.00  0.00    -0.033 A 
ATOM      2  C   UNL d   1      -7.887 -26.400 -40.469  0.00  0.00     0.050 A 
ATOM      3  C   UNL d   1      -8.715 -26.382 -38.948  0.00  0.00     0.014 A 
ATOM      4  C   UNL d   1      -8.701 -26.027 -40.916  0.00  0.00     0.099 A 
ATOM      5  C   UNL d   1      -9.521 -25.832 -40.379  0.00  0.00     0.098 A 
ATOM      6  C   UNL d   1      -9.529 -26.010 -39.395  0.00  0.00     0.040 A 
ENDROOT
BRANCH   1   7
ATOM      7  C   UNL d   1      -7.081 -26.949 -39.038  0.00  0.00     0.018 C 
BRANCH   7   8
ATOM      8  C   UNL d   1      -6.267 -26.380 -38.928  0.00  0.00     0.082 C 
BRANCH   8   9
ATOM      9  C   UNL d   1      -5.508 -26.697 -38.358  0.00  0.00     0.165 C 
ATOM     10  O   UNL d   1      -4.799 -27.283 -38.751  0.00  0.00    -0.647 OA
BRANCH   9  11
ATOM     11  O   UNL d   1      -5.459 -26.429 -37.396  0.00  0.00    -0.773 OA
ATOM     12  H   UNL d   1      -5.368 -26.859 -36.959  0.00  0.00     0.167 HD
ENDBRANCH   9  11
ENDBRANCH   8   9
ENDBRANCH   7   8
ENDBRANCH   1   7
BRANCH   4  13
ATOM     13  O   UNL d   1      -8.694 -25.850 -41.900  0.00  0.00    -0.358 OA
ATOM     14  H   UNL d   1      -8.802 -26.312 -42.299  0.00  0.00     0.217 HD
ENDBRANCH   4  13
BRANCH   5  15
ATOM     15  O   UNL d   1     -10.335 -25.460 -40.826  0.00  0.00    -0.358 OA
ATOM     16  H   UNL d   1     -10.831 -25.820 -40.916  0.00  0.00     0.217 HD
ENDBRANCH   5  15
TORSDOF 6
ENDMDL
MODEL 2
REMARK VINA RESULT:    -5.759     22.316     23.239
REMARK INTER + INTRA:          -6.305
REMARK INTER:                  -7.359
REMARK INTRA:                   1.054
REMARK UNBOUND:                 0.969
REMARK  6 active torsions:
REMARK  status: ('A' for Active; 'I' for Inactive)
REMARK    1  A    between atoms: O_1  and  C_8 
REMARK    2  A    between atoms: O_2  and  C_9 
REMARK    3  A    between atoms: O_3  and  C_13 
REMARK    4  A    between atoms: C_5  and  C_11 
REMARK    5  A    between atoms: C_11  and  C_12 
REMARK    6  A    between atoms: C_12  and  C_13 
ROOT
ATOM      1  C   UNL d   1     -23.939 -27.448 -23.472  0.00  0.00    -0.033 A 
ATOM      2  C   UNL d   1     -23.116 -27.823 -23.044  0.00  0.00     0.050 A 
ATOM      3  C   UNL d   1     -24.451 -26.719 -23.017  0.00  0.00     0.014 A 
ATOM      4  C   UNL d   1     -22.805 -27.469 -22.162  0.00  0.00     0.099 A 
ATOM      5  C   UNL d   1     -23.317 -26.740 -21.708  0.00  0.00     0.098 A 
ATOM      6  C   UNL d   1     -24.139 -26.365 -22.135  0.00  0.00     0.040 A 
ENDROOT
BRANCH   1   7
ATOM      7  C   UNL d   1     -24.250 -27.802 -24.354  0.00  0.00     0.018 C 
BRANCH   7   8
ATOM      8  C   UNL d   1     -24.501 -28.765 -24.445  0.00  0.00     0.082 C 
BRANCH   8   9
ATOM      9  C   UNL d   1     -24.823 -29.117 -25.324  0.00  0.00     0.165 C 
ATOM     10  O   UNL d   1     -25.351 -29.965 -25.361  0.00  0.00    -0.647 OA
BRANCH   9  11
ATOM     11  O   UNL d   1     -24.616 -28.620 -26.167  0.00  0.00    -0.773 OA
ATOM     12  H   UNL d   1     -24.517 -28.008 -26.150  0.00  0.00     0.167 HD
ENDBRANCH   9  11
ENDBRANCH   8   9
ENDBRANCH   7   8
ENDBRANCH   1   7
BRANCH   4  13
ATOM     13  O   UNL d   1     -21.983 -27.844 -21.735  0.00  0.00    -0.358 OA
ATOM     14  H   UNL d   1     -22.027 -28.164 -21.206  0.00  0.00     0.217 HD
ENDBRANCH   4  13
BRANCH   5  15
ATOM     15  O   UNL d   1     -23.006 -26.386 -20.826  0.00  0.00    -0.358 OA
ATOM     16  H   UNL d   1     -23.045 -25.779 -20.704  0.00  0.00     0.217 HD
ENDBRANCH   5  15
TORSDOF 6
ENDMDL
MODEL 3
REMARK VINA RESULT:    -5.720     22.510     23.402
REMARK INTER + INTRA:          -6.255
REMARK INTER:                  -7.223
REMARK INTRA:                   0.968
REMARK UNBOUND:                 0.969
REMARK  6 active torsions:
REMARK  status: ('A' for Active; 'I' for Inactive)
REMARK    1  A    between atoms: O_1  and  C_8 
REMARK    2  A    between atoms: O_2  and  C_9 
REMARK    3  A    between atoms: O_3  and  C_13 
REMARK    4  A    between atoms: C_5  and  C_11 
REMARK    5  A    between atoms: C_11  and  C_12 
REMARK    6  A    between atoms: C_12  and  C_13 
ROOT
ATOM      1  C   UNL d   1     -23.554 -27.342 -23.154  0.00  0.00    -0.033 A 
ATOM      2  C   UNL d   1     -22.885 -26.690 -22.795  0.00  0.00     0.050 A 
ATOM      3  C   UNL d   1     -23.403 -28.324 -23.043  0.00  0.00     0.014 A 
ATOM      4  C   UNL d   1     -22.066 -27.020 -22.326  0.00  0.00     0.099 A 
ATOM      5  C   UNL d   1     -21.915 -28.002 -22.216  0.00  0.00     0.098 A 
ATOM      6  C   UNL d   1     -22.583 -28.654 -22.575  0.00  0.00     0.040 A 
ENDROOT
BRANCH   1   7
ATOM      7  C   UNL d   1     -24.373 -27.011 -23.622  0.00  0.00     0.018 C 
BRANCH   7   8
ATOM      8  C   UNL d   1     -25.004 -26.395 -23.152  0.00  0.00     0.082 C 
BRANCH   8   9
ATOM      9  C   UNL d   1     -25.864 -26.131 -23.588  0.00  0.00     0.165 C 
ATOM     10  O   UNL d   1     -25.878 -25.388 -24.257  0.00  0.00    -0.647 OA
BRANCH   9  11
ATOM     11  O   UNL d   1     -26.710 -26.610 -23.355  0.00  0.00    -0.773 OA
ATOM     12  H   UNL d   1     -27.228 -26.499 -23.678  0.00  0.00     0.167 HD
ENDBRANCH   9  11
ENDBRANCH   8   9
ENDBRANCH   7   8
ENDBRANCH   1   7
BRANCH   4  13
ATOM     13  O   UNL d   1     -21.398 -26.368 -21.968  0.00  0.00    -0.358 OA
ATOM     14  H   UNL d   1     -21.405 -26.216 -21.367  0.00  0.00     0.217 HD
ENDBRANCH   4  13
BRANCH   5  15
ATOM     15  O   UNL d   1     -21.096 -28.333 -21.747  0.00  0.00    -0.358 OA
ATOM     16  H   UNL d   1     -20.809 -27.972 -21.333  0.00  0.00     0.217 HD
ENDBRANCH   5  15
TORSDOF 6
ENDMDL
MODEL 4
REMARK VINA RESULT:    -5.632     36.185     37.092
REMARK INTER + INTRA:          -6.144
REMARK INTER:                  -7.094
REMARK INTRA:                   0.950
REMARK UNBOUND:                 0.969
REMARK  6 active torsions:
REMARK  status: ('A' for Active; 'I' for Inactive)
REMARK    1  A    between atoms: O_1  and  C_8 
REMARK    2  A    between atoms: O_2  and  C_9 
REMARK    3  A    between atoms: O_3  and  C_13 
REMARK    4  A    between atoms: C_5  and  C_11 
REMARK    5  A    between atoms: C_11  and  C_12 
REMARK    6  A    between atoms: C_12  and  C_13 
ROOT
ATOM      1  C   UNL d   1     -31.895  -8.314 -17.836  0.00  0.00    -0.033 A 
ATOM      2  C   UNL d   1     -30.961  -8.014 -18.030  0.00  0.00     0.050 A 
ATOM      3  C   UNL d   1     -32.231  -8.326 -16.894  0.00  0.00     0.014 A 
ATOM      4  C   UNL d   1     -30.363  -7.726 -17.282  0.00  0.00     0.099 A 
ATOM      5  C   UNL d   1     -30.698  -7.739 -16.340  0.00  0.00     0.098 A 
ATOM      6  C   UNL d   1     -31.632  -8.039 -16.147  0.00  0.00     0.040 A 
ENDROOT
BRANCH   1   7
ATOM      7  C   UNL d   1     -32.493  -8.601 -18.584  0.00  0.00     0.018 C 
BRANCH   7   8
ATOM      8  C   UNL d   1     -32.363  -9.495 -19.013  0.00  0.00     0.082 C 
BRANCH   8   9
ATOM      9  C   UNL d   1     -33.064  -9.863 -19.624  0.00  0.00     0.165 C 
ATOM     10  O   UNL d   1     -33.125  -9.539 -20.568  0.00  0.00    -0.647 OA
BRANCH   9  11
ATOM     11  O   UNL d   1     -33.705 -10.555 -19.291  0.00  0.00    -0.773 OA
ATOM     12  H   UNL d   1     -34.289 -10.397 -19.154  0.00  0.00     0.167 HD
ENDBRANCH   9  11
ENDBRANCH   8   9
ENDBRANCH   7   8
ENDBRANCH   1   7
BRANCH   4  13
ATOM     13  O   UNL d   1     -29.429  -7.426 -17.476  0.00  0.00    -0.358 OA
ATOM     14  H   UNL d   1     -28.953  -7.814 -17.385  0.00  0.00     0.217 HD
ENDBRANCH   4  13
BRANCH   5  15
ATOM     15  O   UNL d   1     -30.100  -7.452 -15.593  0.00  0.00    -0.358 OA
ATOM     16  H   UNL d   1     -29.957  -7.850 -15.139  0.00  0.00     0.217 HD
ENDBRANCH   5  15
TORSDOF 6
ENDMDL
MODEL 5
REMARK VINA RESULT:    -5.580     36.012     36.901
REMARK INTER + INTRA:          -6.078
REMARK INTER:                  -7.055
REMARK INTRA:                   0.977
REMARK UNBOUND:                 0.969
REMARK  6 active torsions:
REMARK  status: ('A' for Active; 'I' for Inactive)
REMARK    1  A    between atoms: O_1  and  C_8 
REMARK    2  A    between atoms: O_2  and  C_9 
REMARK    3  A    between atoms: O_3  and  C_13 
REMARK    4  A    between atoms: C_5  and  C_11 
REMARK    5  A    between atoms: C_11  and  C_12 
REMARK    6  A    between atoms: C_12  and  C_13 
ROOT
ATOM      1  C   UNL d   1     -32.179  -8.867 -18.607  0.00  0.00    -0.033 A 
ATOM      2  C   UNL d   1     -33.064  -8.404 -18.563  0.00  0.00     0.050 A 
ATOM      3  C   UNL d   1     -31.991  -9.517 -19.344  0.00  0.00     0.014 A 
ATOM      4  C   UNL d   1     -33.760  -8.589 -19.256  0.00  0.00     0.099 A 
ATOM      5  C   UNL d   1     -33.572  -9.238 -19.993  0.00  0.00     0.098 A 
ATOM      6  C   UNL d   1     -32.687  -9.702 -20.037  0.00  0.00     0.040 A 
ENDROOT
BRANCH   1   7
ATOM      7  C   UNL d   1     -31.482  -8.682 -17.914  0.00  0.00     0.018 C 
BRANCH   7   8
ATOM      8  C   UNL d   1     -31.174  -7.744 -17.754  0.00  0.00     0.082 C 
BRANCH   8   9
ATOM      9  C   UNL d   1     -30.414  -7.568 -17.128  0.00  0.00     0.165 C 
ATOM     10  O   UNL d   1     -30.576  -7.532 -16.142  0.00  0.00    -0.647 OA
BRANCH   9  11
ATOM     11  O   UNL d   1     -29.492  -7.427 -17.488  0.00  0.00    -0.773 OA
ATOM     12  H   UNL d   1     -29.252  -6.856 -17.512  0.00  0.00     0.167 HD
ENDBRANCH   9  11
ENDBRANCH   8   9
ENDBRANCH   7   8
ENDBRANCH   1   7
BRANCH   4  13
ATOM     13  O   UNL d   1     -34.645  -8.125 -19.212  0.00  0.00    -0.358 OA
ATOM     14  H   UNL d   1     -34.754  -7.706 -18.768  0.00  0.00     0.217 HD
ENDBRANCH   4  13
BRANCH   5  15
ATOM     15  O   UNL d   1     -34.269  -9.424 -20.686  0.00  0.00    -0.358 OA
ATOM     16  H   UNL d   1     -34.717  -9.837 -20.572  0.00  0.00     0.217 HD
ENDBRANCH   5  15
TORSDOF 6
ENDMDL
