MODEL 1
REMARK VINA RESULT:    -7.925      0.000      0.000
REMARK INTER + INTRA:          -7.704
REMARK INTER:                  -8.735
REMARK INTRA:                   1.031
REMARK UNBOUND:                 1.148
REMARK  3 active torsions:
REMARK  status: ('A' for Active; 'I' for Inactive)
REMARK    1  A    between atoms: O_2  and  C_10 
REMARK    2  A    between atoms: O_4  and  C_13 
REMARK    3  A    between atoms: C_7  and  C_9 
ROOT
ATOM      1  O   UNL d   1      22.805  -3.688  24.449  0.00  0.00    -0.309 OA
ATOM      2  O   UNL d   1      19.908  -3.495  25.205  0.00  0.00    -0.287 OA
ATOM      3  C   UNL d   1      21.473  -2.765  25.060  0.00  0.00     0.081 A 
ATOM      4  C   UNL d   1      22.438  -2.830  24.808  0.00  0.00     0.095 A 
ATOM      5  C   UNL d   1      22.207  -4.482  24.343  0.00  0.00     0.090 A 
ATOM      6  C   UNL d   1      20.874  -3.559  24.953  0.00  0.00     0.190 A 
ATOM      7  C   UNL d   1      21.077  -1.878  25.434  0.00  0.00     0.085 A 
ATOM      8  C   UNL d   1      21.241  -4.417  24.594  0.00  0.00     0.094 A 
ATOM      9  C   UNL d   1      23.074  -2.011  24.913  0.00  0.00     0.075 A 
ATOM     10  C   UNL d   1      22.699  -1.114  25.286  0.00  0.00     0.071 A 
ATOM     11  C   UNL d   1      21.694  -1.047  25.548  0.00  0.00     0.074 A 
ENDROOT
BRANCH   5  12
ATOM     12  C   UNL d   1      22.574  -5.340  23.984  0.00  0.00    -0.002 A 
ATOM     13  C   UNL d   1      22.794  -5.423  23.012  0.00  0.00     0.014 A 
ATOM     14  C   UNL d   1      23.161  -6.281  22.654  0.00  0.00     0.001 A 
ATOM     15  C   UNL d   1      23.308  -7.057  23.267  0.00  0.00     0.000 A 
ATOM     16  C   UNL d   1      23.087  -6.975  24.239  0.00  0.00     0.001 A 
ATOM     17  C   UNL d   1      22.720  -6.116  24.597  0.00  0.00     0.014 A 
ENDBRANCH   5  12
BRANCH   7  18
ATOM     18  O   UNL d   1      20.109  -1.825  25.683  0.00  0.00    -0.360 OA
ATOM     19  H   UNL d   1      19.782  -1.317  25.547  0.00  0.00     0.217 HD
ENDBRANCH   7  18
BRANCH  10  20
ATOM     20  O   UNL d   1      23.301  -0.322  25.391  0.00  0.00    -0.361 OA
ATOM     21  H   UNL d   1      23.095   0.245  25.248  0.00  0.00     0.217 HD
ENDBRANCH  10  20
TORSDOF 3
ENDMDL
MODEL 2
REMARK VINA RESULT:    -7.801      1.285      2.317
REMARK INTER + INTRA:          -7.566
REMARK INTER:                  -8.613
REMARK INTRA:                   1.047
REMARK UNBOUND:                 1.148
REMARK  3 active torsions:
REMARK  status: ('A' for Active; 'I' for Inactive)
REMARK    1  A    between atoms: O_2  and  C_10 
REMARK    2  A    between atoms: O_4  and  C_13 
REMARK    3  A    between atoms: C_7  and  C_9 
ROOT
ATOM      1  O   UNL d   1      21.866  -2.900  23.809  0.00  0.00    -0.309 OA
ATOM      2  O   UNL d   1      24.302  -2.047  25.339  0.00  0.00    -0.287 OA
ATOM      3  C   UNL d   1      22.680  -1.745  24.811  0.00  0.00     0.081 A 
ATOM      4  C   UNL d   1      21.868  -2.029  24.302  0.00  0.00     0.095 A 
ATOM      5  C   UNL d   1      22.676  -3.486  23.827  0.00  0.00     0.090 A 
ATOM      6  C   UNL d   1      23.490  -2.331  24.829  0.00  0.00     0.190 A 
ATOM      7  C   UNL d   1      22.696  -0.841  25.329  0.00  0.00     0.085 A 
ATOM      8  C   UNL d   1      23.488  -3.201  24.337  0.00  0.00     0.094 A 
ATOM      9  C   UNL d   1      21.016  -1.430  24.274  0.00  0.00     0.075 A 
ATOM     10  C   UNL d   1      21.011  -0.522  24.784  0.00  0.00     0.071 A 
ATOM     11  C   UNL d   1      21.856  -0.226  25.315  0.00  0.00     0.074 A 
ENDROOT
BRANCH   5  12
ATOM     12  C   UNL d   1      22.674  -4.356  23.334  0.00  0.00    -0.002 A 
ATOM     13  C   UNL d   1      22.670  -5.218  23.842  0.00  0.00     0.014 A 
ATOM     14  C   UNL d   1      22.668  -6.088  23.350  0.00  0.00     0.001 A 
ATOM     15  C   UNL d   1      22.670  -6.097  22.350  0.00  0.00     0.000 A 
ATOM     16  C   UNL d   1      22.674  -5.235  21.842  0.00  0.00     0.001 A 
ATOM     17  C   UNL d   1      22.676  -4.365  22.334  0.00  0.00     0.014 A 
ENDBRANCH   5  12
BRANCH   7  18
ATOM     18  O   UNL d   1      23.513  -0.567  25.835  0.00  0.00    -0.360 OA
ATOM     19  H   UNL d   1      23.476  -0.125  26.268  0.00  0.00     0.217 HD
ENDBRANCH   7  18
BRANCH  10  20
ATOM     20  O   UNL d   1      20.198   0.062  24.764  0.00  0.00    -0.361 OA
ATOM     21  H   UNL d   1      20.158   0.550  25.144  0.00  0.00     0.217 HD
ENDBRANCH  10  20
TORSDOF 3
ENDMDL
MODEL 3
REMARK VINA RESULT:    -7.783     20.785     21.907
REMARK INTER + INTRA:          -7.545
REMARK INTER:                  -8.554
REMARK INTRA:                   1.009
REMARK UNBOUND:                 1.148
REMARK  3 active torsions:
REMARK  status: ('A' for Active; 'I' for Inactive)
REMARK    1  A    between atoms: O_2  and  C_10 
REMARK    2  A    between atoms: O_4  and  C_13 
REMARK    3  A    between atoms: C_7  and  C_9 
ROOT
ATOM      1  O   UNL d   1      32.082 -15.921  10.673  0.00  0.00    -0.309 OA
ATOM      2  O   UNL d   1      33.667 -16.662   8.237  0.00  0.00    -0.287 OA
ATOM      3  C   UNL d   1      33.517 -15.772   9.716  0.00  0.00     0.081 A 
ATOM      4  C   UNL d   1      32.988 -15.525  10.528  0.00  0.00     0.095 A 
ATOM      5  C   UNL d   1      31.703 -16.563  10.007  0.00  0.00     0.090 A 
ATOM      6  C   UNL d   1      33.139 -16.415   9.049  0.00  0.00     0.190 A 
ATOM      7  C   UNL d   1      34.462 -15.368   9.551  0.00  0.00     0.085 A 
ATOM      8  C   UNL d   1      32.232 -16.810   9.195  0.00  0.00     0.094 A 
ATOM      9  C   UNL d   1      33.369 -14.857  11.231  0.00  0.00     0.075 A 
ATOM     10  C   UNL d   1      34.313 -14.441  11.086  0.00  0.00     0.071 A 
ATOM     11  C   UNL d   1      34.863 -14.698  10.240  0.00  0.00     0.074 A 
ENDROOT
BRANCH   5  12
ATOM     12  C   UNL d   1      30.797 -16.959  10.153  0.00  0.00    -0.002 A 
ATOM     13  C   UNL d   1      30.708 -17.874  10.546  0.00  0.00     0.014 A 
ATOM     14  C   UNL d   1      29.801 -18.270  10.691  0.00  0.00     0.001 A 
ATOM     15  C   UNL d   1      28.983 -17.750  10.444  0.00  0.00     0.000 A 
ATOM     16  C   UNL d   1      29.072 -16.835  10.052  0.00  0.00     0.001 A 
ATOM     17  C   UNL d   1      29.979 -16.439   9.906  0.00  0.00     0.014 A 
ENDBRANCH   5  12
BRANCH   7  18
ATOM     18  O   UNL d   1      34.982 -15.622   8.735  0.00  0.00    -0.360 OA
ATOM     19  H   UNL d   1      35.578 -15.784   8.786  0.00  0.00     0.217 HD
ENDBRANCH   7  18
BRANCH  10  20
ATOM     20  O   UNL d   1      34.687 -13.799  11.755  0.00  0.00    -0.361 OA
ATOM     21  H   UNL d   1      35.228 -13.517  11.644  0.00  0.00     0.217 HD
ENDBRANCH  10  20
TORSDOF 3
ENDMDL
MODEL 4
REMARK VINA RESULT:    -7.759      3.055      4.272
REMARK INTER + INTRA:          -7.518
REMARK INTER:                  -8.520
REMARK INTRA:                   1.002
REMARK UNBOUND:                 1.148
REMARK  3 active torsions:
REMARK  status: ('A' for Active; 'I' for Inactive)
REMARK    1  A    between atoms: O_2  and  C_10 
REMARK    2  A    between atoms: O_4  and  C_13 
REMARK    3  A    between atoms: C_7  and  C_9 
ROOT
ATOM      1  O   UNL d   1      20.975  -1.232  23.103  0.00  0.00    -0.309 OA
ATOM      2  O   UNL d   1      22.703  -3.682  22.989  0.00  0.00    -0.287 OA
ATOM      3  C   UNL d   1      22.191  -2.244  23.808  0.00  0.00     0.081 A 
ATOM      4  C   UNL d   1      21.615  -1.427  23.846  0.00  0.00     0.095 A 
ATOM      5  C   UNL d   1      20.911  -1.853  22.322  0.00  0.00     0.090 A 
ATOM      6  C   UNL d   1      22.127  -2.865  23.027  0.00  0.00     0.190 A 
ATOM      7  C   UNL d   1      22.862  -2.460  24.574  0.00  0.00     0.085 A 
ATOM      8  C   UNL d   1      21.487  -2.670  22.284  0.00  0.00     0.094 A 
ATOM      9  C   UNL d   1      21.670  -0.770  24.653  0.00  0.00     0.075 A 
ATOM     10  C   UNL d   1      22.335  -0.967  25.430  0.00  0.00     0.071 A 
ATOM     11  C   UNL d   1      22.934  -1.817  25.391  0.00  0.00     0.074 A 
ENDROOT
BRANCH   5  12
ATOM     12  C   UNL d   1      20.271  -1.658  21.578  0.00  0.00    -0.002 A 
ATOM     13  C   UNL d   1      19.361  -2.071  21.581  0.00  0.00     0.014 A 
ATOM     14  C   UNL d   1      18.721  -1.876  20.838  0.00  0.00     0.001 A 
ATOM     15  C   UNL d   1      18.991  -1.267  20.092  0.00  0.00     0.000 A 
ATOM     16  C   UNL d   1      19.902  -0.854  20.089  0.00  0.00     0.001 A 
ATOM     17  C   UNL d   1      20.542  -1.049  20.833  0.00  0.00     0.014 A 
ENDBRANCH   5  12
BRANCH   7  18
ATOM     18  O   UNL d   1      23.433  -3.280  24.526  0.00  0.00    -0.360 OA
ATOM     19  H   UNL d   1      24.038  -3.244  24.657  0.00  0.00     0.217 HD
ENDBRANCH   7  18
BRANCH  10  20
ATOM     20  O   UNL d   1      22.396  -0.343  26.210  0.00  0.00    -0.361 OA
ATOM     21  H   UNL d   1      22.359   0.269  26.120  0.00  0.00     0.217 HD
ENDBRANCH  10  20
TORSDOF 3
ENDMDL
MODEL 5
REMARK VINA RESULT:    -7.685     34.824     35.811
REMARK INTER + INTRA:          -7.436
REMARK INTER:                  -8.611
REMARK INTRA:                   1.175
REMARK UNBOUND:                 1.148
REMARK  3 active torsions:
REMARK  status: ('A' for Active; 'I' for Inactive)
REMARK    1  A    between atoms: O_2  and  C_10 
REMARK    2  A    between atoms: O_4  and  C_13 
REMARK    3  A    between atoms: C_7  and  C_9 
ROOT
ATOM      1  O   UNL d   1      20.068   4.015  -9.847  0.00  0.00    -0.309 OA
ATOM      2  O   UNL d   1      19.205   1.965 -11.860  0.00  0.00    -0.287 OA
ATOM      3  C   UNL d   1      19.036   3.537 -11.153  0.00  0.00     0.081 A 
ATOM      4  C   UNL d   1      19.324   4.220 -10.482  0.00  0.00     0.095 A 
ATOM      5  C   UNL d   1      20.525   3.126  -9.883  0.00  0.00     0.090 A 
ATOM      6  C   UNL d   1      19.493   2.648 -11.189  0.00  0.00     0.190 A 
ATOM      7  C   UNL d   1      18.262   3.737 -11.821  0.00  0.00     0.085 A 
ATOM      8  C   UNL d   1      20.238   2.443 -10.554  0.00  0.00     0.094 A 
ATOM      9  C   UNL d   1      18.858   5.151 -10.432  0.00  0.00     0.075 A 
ATOM     10  C   UNL d   1      18.081   5.372 -11.091  0.00  0.00     0.071 A 
ATOM     11  C   UNL d   1      17.782   4.660 -11.789  0.00  0.00     0.074 A 
ENDROOT
BRANCH   5  12
ATOM     12  C   UNL d   1      21.270   2.921  -9.248  0.00  0.00    -0.002 A 
ATOM     13  C   UNL d   1      21.263   2.066  -8.729  0.00  0.00     0.014 A 
ATOM     14  C   UNL d   1      22.007   1.861  -8.094  0.00  0.00     0.001 A 
ATOM     15  C   UNL d   1      22.759   2.510  -7.978  0.00  0.00     0.000 A 
ATOM     16  C   UNL d   1      22.767   3.364  -8.497  0.00  0.00     0.001 A 
ATOM     17  C   UNL d   1      22.022   3.570  -9.133  0.00  0.00     0.014 A 
ENDBRANCH   5  12
BRANCH   7  18
ATOM     18  O   UNL d   1      17.983   3.046 -12.488  0.00  0.00    -0.360 OA
ATOM     19  H   UNL d   1      17.383   2.973 -12.625  0.00  0.00     0.217 HD
ENDBRANCH   7  18
BRANCH  10  20
ATOM     20  O   UNL d   1      17.627   6.262 -11.051  0.00  0.00    -0.361 OA
ATOM     21  H   UNL d   1      17.103   6.357 -11.370  0.00  0.00     0.217 HD
ENDBRANCH  10  20
TORSDOF 3
ENDMDL
