MODEL 1
REMARK VINA RESULT:    -8.302      0.000      0.000
REMARK INTER + INTRA:          -8.157
REMARK INTER:                 -10.075
REMARK INTRA:                   1.918
REMARK UNBOUND:                 1.844
REMARK  5 active torsions:
REMARK  status: ('A' for Active; 'I' for Inactive)
REMARK    1  A    between atoms: O_2  and  C_13 
REMARK    2  A    between atoms: O_3  and  C_19 
REMARK    3  A    between atoms: O_5  and  C_17 
REMARK    4  A    between atoms: O_6  and  C_21 
REMARK    5  A    between atoms: C_8  and  C_10 
ROOT
ATOM      1  O   UNL d   1      22.806  -3.317  24.377  0.00  0.00    -0.309 OA
ATOM      2  O   UNL d   1      19.994  -3.318  25.423  0.00  0.00    -0.287 OA
ATOM      3  C   UNL d   1      21.526  -2.530  25.238  0.00  0.00     0.081 A 
ATOM      4  C   UNL d   1      22.212  -4.105  24.214  0.00  0.00     0.090 A 
ATOM      5  C   UNL d   1      22.463  -2.530  24.889  0.00  0.00     0.095 A 
ATOM      6  C   UNL d   1      20.932  -3.318  25.075  0.00  0.00     0.190 A 
ATOM      7  C   UNL d   1      21.275  -4.105  24.562  0.00  0.00     0.094 A 
ATOM      8  C   UNL d   1      21.155  -1.718  25.773  0.00  0.00     0.085 A 
ATOM      9  C   UNL d   1      23.094  -1.717  25.052  0.00  0.00     0.075 A 
ATOM     10  C   UNL d   1      22.744  -0.893  25.585  0.00  0.00     0.071 A 
ATOM     11  C   UNL d   1      21.768  -0.894  25.948  0.00  0.00     0.074 A 
ENDROOT
BRANCH   4  12
ATOM     12  C   UNL d   1      22.555  -4.892  23.701  0.00  0.00     0.001 A 
ATOM     13  C   UNL d   1      22.712  -5.762  24.168  0.00  0.00     0.054 A 
ATOM     14  C   UNL d   1      23.055  -6.550  23.656  0.00  0.00     0.102 A 
ATOM     15  C   UNL d   1      23.241  -6.467  22.677  0.00  0.00     0.099 A 
ATOM     16  C   UNL d   1      23.084  -5.596  22.210  0.00  0.00     0.040 A 
ATOM     17  C   UNL d   1      22.741  -4.809  22.722  0.00  0.00     0.017 A 
BRANCH  14  18
ATOM     18  O   UNL d   1      23.213  -7.420  24.122  0.00  0.00    -0.353 OA
ATOM     19  C   UNL d   1      22.632  -7.687  24.891  0.00  0.00     0.210 C 
ENDBRANCH  14  18
BRANCH  15  20
ATOM     20  O   UNL d   1      23.584  -7.254  22.164  0.00  0.00    -0.358 OA
ATOM     21  H   UNL d   1      24.104  -7.539  22.346  0.00  0.00     0.217 HD
ENDBRANCH  15  20
ENDBRANCH   4  12
BRANCH   8  22
ATOM     22  O   UNL d   1      20.216  -1.729  26.117  0.00  0.00    -0.360 OA
ATOM     23  H   UNL d   1      19.851  -2.217  26.005  0.00  0.00     0.217 HD
ENDBRANCH   8  22
BRANCH  10  24
ATOM     24  O   UNL d   1      23.341  -0.108  25.746  0.00  0.00    -0.361 OA
ATOM     25  H   UNL d   1      23.197   0.306  26.184  0.00  0.00     0.217 HD
ENDBRANCH  10  24
TORSDOF 5
ENDMDL
MODEL 2
REMARK VINA RESULT:    -8.171      1.285      1.984
REMARK INTER + INTRA:          -8.000
REMARK INTER:                 -10.072
REMARK INTRA:                   2.072
REMARK UNBOUND:                 1.844
REMARK  5 active torsions:
REMARK  status: ('A' for Active; 'I' for Inactive)
REMARK    1  A    between atoms: O_2  and  C_13 
REMARK    2  A    between atoms: O_3  and  C_19 
REMARK    3  A    between atoms: O_5  and  C_17 
REMARK    4  A    between atoms: O_6  and  C_21 
REMARK    5  A    between atoms: C_8  and  C_10 
ROOT
ATOM      1  O   UNL d   1      21.898  -2.758  23.614  0.00  0.00    -0.309 OA
ATOM      2  O   UNL d   1      24.284  -2.064  25.295  0.00  0.00    -0.287 OA
ATOM      3  C   UNL d   1      22.688  -1.696  24.732  0.00  0.00     0.081 A 
ATOM      4  C   UNL d   1      22.699  -3.357  23.617  0.00  0.00     0.090 A 
ATOM      5  C   UNL d   1      21.893  -1.927  24.172  0.00  0.00     0.095 A 
ATOM      6  C   UNL d   1      23.489  -2.295  24.735  0.00  0.00     0.190 A 
ATOM      7  C   UNL d   1      23.494  -3.126  24.178  0.00  0.00     0.094 A 
ATOM      8  C   UNL d   1      22.697  -0.835  25.317  0.00  0.00     0.085 A 
ATOM      9  C   UNL d   1      21.051  -1.313  24.158  0.00  0.00     0.075 A 
ATOM     10  C   UNL d   1      21.039  -0.447  24.736  0.00  0.00     0.071 A 
ATOM     11  C   UNL d   1      21.867  -0.206  25.319  0.00  0.00     0.074 A 
ENDROOT
BRANCH   4  12
ATOM     12  C   UNL d   1      22.704  -4.187  23.060  0.00  0.00     0.001 A 
ATOM     13  C   UNL d   1      23.016  -5.052  23.454  0.00  0.00     0.054 A 
ATOM     14  C   UNL d   1      23.022  -5.882  22.897  0.00  0.00     0.102 A 
ATOM     15  C   UNL d   1      22.715  -5.848  21.946  0.00  0.00     0.099 A 
ATOM     16  C   UNL d   1      22.402  -4.983  21.552  0.00  0.00     0.040 A 
ATOM     17  C   UNL d   1      22.397  -4.153  22.109  0.00  0.00     0.017 A 
BRANCH  14  18
ATOM     18  O   UNL d   1      23.334  -6.747  23.290  0.00  0.00    -0.353 OA
ATOM     19  C   UNL d   1      23.097  -6.981  24.233  0.00  0.00     0.210 C 
ENDBRANCH  14  18
BRANCH  15  20
ATOM     20  O   UNL d   1      22.720  -6.678  21.388  0.00  0.00    -0.358 OA
ATOM     21  H   UNL d   1      22.435  -7.190  21.592  0.00  0.00     0.217 HD
ENDBRANCH  15  20
ENDBRANCH   4  12
BRANCH   8  22
ATOM     22  O   UNL d   1      23.498  -0.614  25.874  0.00  0.00    -0.360 OA
ATOM     23  H   UNL d   1      23.549  -0.054  26.134  0.00  0.00     0.217 HD
ENDBRANCH   8  22
BRANCH  10  24
ATOM     24  O   UNL d   1      20.236   0.150  24.730  0.00  0.00    -0.361 OA
ATOM     25  H   UNL d   1      20.038   0.408  25.258  0.00  0.00     0.217 HD
ENDBRANCH  10  24
TORSDOF 5
ENDMDL
MODEL 3
REMARK VINA RESULT:    -8.079      3.809      5.517
REMARK INTER + INTRA:          -7.888
REMARK INTER:                 -10.043
REMARK INTRA:                   2.155
REMARK UNBOUND:                 1.844
REMARK  5 active torsions:
REMARK  status: ('A' for Active; 'I' for Inactive)
REMARK    1  A    between atoms: O_2  and  C_13 
REMARK    2  A    between atoms: O_3  and  C_19 
REMARK    3  A    between atoms: O_5  and  C_17 
REMARK    4  A    between atoms: O_6  and  C_21 
REMARK    5  A    between atoms: C_8  and  C_10 
ROOT
ATOM      1  O   UNL d   1      20.429  -0.703  22.279  0.00  0.00    -0.309 OA
ATOM      2  O   UNL d   1      20.815  -3.441  21.115  0.00  0.00    -0.287 OA
ATOM      3  C   UNL d   1      20.210  -1.824  20.977  0.00  0.00     0.081 A 
ATOM      4  C   UNL d   1      20.905  -1.407  22.805  0.00  0.00     0.090 A 
ATOM      5  C   UNL d   1      20.081  -0.911  21.365  0.00  0.00     0.095 A 
ATOM      6  C   UNL d   1      20.686  -2.528  21.503  0.00  0.00     0.190 A 
ATOM      7  C   UNL d   1      21.034  -2.320  22.417  0.00  0.00     0.094 A 
ATOM      8  C   UNL d   1      19.853  -2.055  20.026  0.00  0.00     0.085 A 
ATOM      9  C   UNL d   1      19.587  -0.167  20.829  0.00  0.00     0.075 A 
ATOM     10  C   UNL d   1      19.222  -0.377  19.876  0.00  0.00     0.071 A 
ATOM     11  C   UNL d   1      19.356  -1.327  19.472  0.00  0.00     0.074 A 
ENDROOT
BRANCH   4  12
ATOM     12  C   UNL d   1      21.253  -1.199  23.719  0.00  0.00     0.001 A 
ATOM     13  C   UNL d   1      22.078  -1.653  24.056  0.00  0.00     0.054 A 
ATOM     14  C   UNL d   1      22.426  -1.445  24.970  0.00  0.00     0.102 A 
ATOM     15  C   UNL d   1      21.948  -0.783  25.548  0.00  0.00     0.099 A 
ATOM     16  C   UNL d   1      21.123  -0.329  25.211  0.00  0.00     0.040 A 
ATOM     17  C   UNL d   1      20.775  -0.537  24.297  0.00  0.00     0.017 A 
BRANCH  14  18
ATOM     18  O   UNL d   1      23.251  -1.898  25.306  0.00  0.00    -0.353 OA
ATOM     19  C   UNL d   1      23.815  -2.439  24.682  0.00  0.00     0.210 C 
ENDBRANCH  14  18
BRANCH  15  20
ATOM     20  O   UNL d   1      22.296  -0.574  26.462  0.00  0.00    -0.358 OA
ATOM     21  H   UNL d   1      21.974  -0.747  26.963  0.00  0.00     0.217 HD
ENDBRANCH  15  20
ENDBRANCH   4  12
BRANCH   8  22
ATOM     22  O   UNL d   1      19.987  -2.971  19.648  0.00  0.00    -0.360 OA
ATOM     23  H   UNL d   1      20.540  -3.134  19.420  0.00  0.00     0.217 HD
ENDBRANCH   8  22
BRANCH  10  24
ATOM     24  O   UNL d   1      18.746   0.331  19.353  0.00  0.00    -0.361 OA
ATOM     25  H   UNL d   1      18.261   0.626  19.602  0.00  0.00     0.217 HD
ENDBRANCH  10  24
TORSDOF 5
ENDMDL
MODEL 4
REMARK VINA RESULT:    -7.963      1.010      5.237
REMARK INTER + INTRA:          -7.749
REMARK INTER:                  -9.590
REMARK INTRA:                   1.841
REMARK UNBOUND:                 1.844
REMARK  5 active torsions:
REMARK  status: ('A' for Active; 'I' for Inactive)
REMARK    1  A    between atoms: O_2  and  C_13 
REMARK    2  A    between atoms: O_3  and  C_19 
REMARK    3  A    between atoms: O_5  and  C_17 
REMARK    4  A    between atoms: O_6  and  C_21 
REMARK    5  A    between atoms: C_8  and  C_10 
ROOT
ATOM      1  O   UNL d   1      22.668  -4.740  24.555  0.00  0.00    -0.309 OA
ATOM      2  O   UNL d   1      22.835  -4.660  21.561  0.00  0.00    -0.287 OA
ATOM      3  C   UNL d   1      22.784  -5.565  23.037  0.00  0.00     0.081 A 
ATOM      4  C   UNL d   1      22.663  -3.862  24.078  0.00  0.00     0.090 A 
ATOM      5  C   UNL d   1      22.728  -5.592  24.035  0.00  0.00     0.095 A 
ATOM      6  C   UNL d   1      22.779  -4.687  22.559  0.00  0.00     0.190 A 
ATOM      7  C   UNL d   1      22.719  -3.835  23.080  0.00  0.00     0.094 A 
ATOM      8  C   UNL d   1      22.847  -6.444  22.482  0.00  0.00     0.085 A 
ATOM      9  C   UNL d   1      22.731  -6.499  24.547  0.00  0.00     0.075 A 
ATOM     10  C   UNL d   1      22.794  -7.391  24.011  0.00  0.00     0.071 A 
ATOM     11  C   UNL d   1      22.852  -7.363  22.972  0.00  0.00     0.074 A 
ENDROOT
BRANCH   4  12
ATOM     12  C   UNL d   1      22.603  -3.010  24.598  0.00  0.00     0.001 A 
ATOM     13  C   UNL d   1      21.724  -2.712  24.970  0.00  0.00     0.054 A 
ATOM     14  C   UNL d   1      21.664  -1.861  25.490  0.00  0.00     0.102 A 
ATOM     15  C   UNL d   1      22.483  -1.306  25.639  0.00  0.00     0.099 A 
ATOM     16  C   UNL d   1      23.362  -1.604  25.267  0.00  0.00     0.040 A 
ATOM     17  C   UNL d   1      23.422  -2.456  24.747  0.00  0.00     0.017 A 
BRANCH  14  18
ATOM     18  O   UNL d   1      20.785  -1.563  25.862  0.00  0.00    -0.353 OA
ATOM     19  C   UNL d   1      19.967  -2.121  25.721  0.00  0.00     0.210 C 
ENDBRANCH  14  18
BRANCH  15  20
ATOM     20  O   UNL d   1      22.423  -0.455  26.159  0.00  0.00    -0.358 OA
ATOM     21  H   UNL d   1      21.944  -0.358  26.541  0.00  0.00     0.217 HD
ENDBRANCH  15  20
ENDBRANCH   4  12
BRANCH   8  22
ATOM     22  O   UNL d   1      22.902  -6.405  21.484  0.00  0.00    -0.360 OA
ATOM     23  H   UNL d   1      23.416  -6.194  21.210  0.00  0.00     0.217 HD
ENDBRANCH   8  22
BRANCH  10  24
ATOM     24  O   UNL d   1      22.798  -8.267  24.493  0.00  0.00    -0.361 OA
ATOM     25  H   UNL d   1      23.185  -8.357  24.969  0.00  0.00     0.217 HD
ENDBRANCH  10  24
TORSDOF 5
ENDMDL
MODEL 5
REMARK VINA RESULT:    -7.873     33.938     35.611
REMARK INTER + INTRA:          -7.640
REMARK INTER:                  -9.577
REMARK INTRA:                   1.937
REMARK UNBOUND:                 1.844
REMARK  5 active torsions:
REMARK  status: ('A' for Active; 'I' for Inactive)
REMARK    1  A    between atoms: O_2  and  C_13 
REMARK    2  A    between atoms: O_3  and  C_19 
REMARK    3  A    between atoms: O_5  and  C_17 
REMARK    4  A    between atoms: O_6  and  C_21 
REMARK    5  A    between atoms: C_8  and  C_10 
ROOT
ATOM      1  O   UNL d   1      19.965   4.128  -9.911  0.00  0.00    -0.309 OA
ATOM      2  O   UNL d   1      19.120   2.022 -11.873  0.00  0.00    -0.287 OA
ATOM      3  C   UNL d   1      18.925   3.603 -11.193  0.00  0.00     0.081 A 
ATOM      4  C   UNL d   1      20.441   3.249  -9.937  0.00  0.00     0.090 A 
ATOM      5  C   UNL d   1      19.207   4.305 -10.538  0.00  0.00     0.095 A 
ATOM      6  C   UNL d   1      19.402   2.724 -11.219  0.00  0.00     0.190 A 
ATOM      7  C   UNL d   1      20.160   2.547 -10.591  0.00  0.00     0.094 A 
ATOM      8  C   UNL d   1      18.138   3.773 -11.852  0.00  0.00     0.085 A 
ATOM      9  C   UNL d   1      18.720   5.225 -10.499  0.00  0.00     0.075 A 
ATOM     10  C   UNL d   1      17.930   5.416 -11.149  0.00  0.00     0.071 A 
ATOM     11  C   UNL d   1      17.637   4.686 -11.830  0.00  0.00     0.074 A 
ENDROOT
BRANCH   4  12
ATOM     12  C   UNL d   1      21.200   3.072  -9.309  0.00  0.00     0.001 A 
ATOM     13  C   UNL d   1      21.994   3.680  -9.301  0.00  0.00     0.054 A 
ATOM     14  C   UNL d   1      22.752   3.503  -8.673  0.00  0.00     0.102 A 
ATOM     15  C   UNL d   1      22.716   2.719  -8.054  0.00  0.00     0.099 A 
ATOM     16  C   UNL d   1      21.921   2.111  -8.063  0.00  0.00     0.040 A 
ATOM     17  C   UNL d   1      21.163   2.288  -8.690  0.00  0.00     0.017 A 
BRANCH  14  18
ATOM     18  O   UNL d   1      23.546   4.111  -8.665  0.00  0.00    -0.353 OA
ATOM     19  C   UNL d   1      23.609   4.861  -9.323  0.00  0.00     0.210 C 
ENDBRANCH  14  18
BRANCH  15  20
ATOM     20  O   UNL d   1      23.474   2.542  -7.426  0.00  0.00    -0.358 OA
ATOM     21  H   UNL d   1      24.057   2.548  -7.636  0.00  0.00     0.217 HD
ENDBRANCH  15  20
ENDBRANCH   4  12
BRANCH   8  22
ATOM     22  O   UNL d   1      17.865   3.064 -12.502  0.00  0.00    -0.360 OA
ATOM     23  H   UNL d   1      17.470   3.199 -12.960  0.00  0.00     0.217 HD
ENDBRANCH   8  22
BRANCH  10  24
ATOM     24  O   UNL d   1      17.456   6.297 -11.119  0.00  0.00    -0.361 OA
ATOM     25  H   UNL d   1      17.781   6.824 -11.133  0.00  0.00     0.217 HD
ENDBRANCH  10  24
TORSDOF 5
ENDMDL
