MODEL 1
REMARK VINA RESULT:    -3.815      0.000      0.000
REMARK INTER + INTRA:          -3.926
REMARK INTER:                  -3.926
REMARK INTRA:                   0.000
REMARK UNBOUND:                 0.000
REMARK  1 active torsions:
REMARK  status: ('A' for Active; 'I' for Inactive)
REMARK    1  A    between atoms: O_1  and  N_3 
REMARK       I    between atoms: N_3  and  C_4 
ROOT
ATOM      1  O   UNL d   1       5.778  -8.103  22.500  0.00  0.00    -0.272 OA
ATOM      2  N   UNL d   1       4.692  -9.247  21.784  0.00  0.00    -0.238 N 
ATOM      3  C   UNL d   1       5.435  -9.039  22.419  0.00  0.00     0.236 C 
ATOM      4  C   UNL d   1       5.836  -9.768  22.975  0.00  0.00     0.119 C 
ATOM      5  H   UNL d   1       4.480  -9.827  21.734  0.00  0.00     0.197 HD
ENDROOT
BRANCH   2   6
ATOM      6  O   UNL d   1       4.291  -8.518  21.228  0.00  0.00    -0.287 OA
ATOM      7  H   UNL d   1       4.282  -7.936  21.441  0.00  0.00     0.244 HD
ENDBRANCH   2   6
TORSDOF 1
ENDMDL
MODEL 2
REMARK VINA RESULT:    -3.742     22.990     23.141
REMARK INTER + INTRA:          -3.851
REMARK INTER:                  -3.851
REMARK INTRA:                   0.000
REMARK UNBOUND:                 0.000
REMARK  1 active torsions:
REMARK  status: ('A' for Active; 'I' for Inactive)
REMARK    1  A    between atoms: O_1  and  N_3 
REMARK       I    between atoms: N_3  and  C_4 
ROOT
ATOM      1  O   UNL d   1      12.141  10.133   9.381  0.00  0.00    -0.272 OA
ATOM      2  N   UNL d   1      11.294   8.631   9.221  0.00  0.00    -0.238 N 
ATOM      3  C   UNL d   1      12.139   9.133   9.406  0.00  0.00     0.236 C 
ATOM      4  C   UNL d   1      12.981   8.636   9.616  0.00  0.00     0.119 C 
ATOM      5  H   UNL d   1      11.293   8.011   9.236  0.00  0.00     0.197 HD
ENDROOT
BRANCH   2   6
ATOM      6  O   UNL d   1      10.452   9.128   9.011  0.00  0.00    -0.287 OA
ATOM      7  H   UNL d   1      10.017   9.198   9.447  0.00  0.00     0.244 HD
ENDBRANCH   2   6
TORSDOF 1
ENDMDL
MODEL 3
REMARK VINA RESULT:    -3.683     15.791     15.825
REMARK INTER + INTRA:          -3.791
REMARK INTER:                  -3.791
REMARK INTRA:                   0.000
REMARK UNBOUND:                 0.000
REMARK  1 active torsions:
REMARK  status: ('A' for Active; 'I' for Inactive)
REMARK    1  A    between atoms: O_1  and  N_3 
REMARK       I    between atoms: N_3  and  C_4 
ROOT
ATOM      1  O   UNL d   1      15.973 -13.298  12.506  0.00  0.00    -0.272 OA
ATOM      2  N   UNL d   1      16.084 -13.266  10.778  0.00  0.00    -0.238 N 
ATOM      3  C   UNL d   1      15.596 -13.531  11.610  0.00  0.00     0.236 C 
ATOM      4  C   UNL d   1      14.732 -14.030  11.545  0.00  0.00     0.119 C 
ATOM      5  H   UNL d   1      15.850 -13.411  10.222  0.00  0.00     0.197 HD
ENDROOT
BRANCH   2   6
ATOM      6  O   UNL d   1      16.948 -12.767  10.843  0.00  0.00    -0.287 OA
ATOM      7  H   UNL d   1      17.439 -12.954  10.514  0.00  0.00     0.244 HD
ENDBRANCH   2   6
TORSDOF 1
ENDMDL
MODEL 4
REMARK VINA RESULT:    -3.659     14.788     14.926
REMARK INTER + INTRA:          -3.766
REMARK INTER:                  -3.766
REMARK INTRA:                   0.000
REMARK UNBOUND:                 0.000
REMARK  1 active torsions:
REMARK  status: ('A' for Active; 'I' for Inactive)
REMARK    1  A    between atoms: O_1  and  N_3 
REMARK       I    between atoms: N_3  and  C_4 
ROOT
ATOM      1  O   UNL d   1      15.800 -13.588  14.330  0.00  0.00    -0.272 OA
ATOM      2  N   UNL d   1      17.398 -12.982  14.049  0.00  0.00    -0.238 N 
ATOM      3  C   UNL d   1      16.544 -13.368  13.700  0.00  0.00     0.236 C 
ATOM      4  C   UNL d   1      16.435 -13.533  12.720  0.00  0.00     0.119 C 
ATOM      5  H   UNL d   1      17.859 -12.845  13.658  0.00  0.00     0.197 HD
ENDROOT
BRANCH   2   6
ATOM      6  O   UNL d   1      17.508 -12.817  15.030  0.00  0.00    -0.287 OA
ATOM      7  H   UNL d   1      17.104 -13.062  15.432  0.00  0.00     0.244 HD
ENDBRANCH   2   6
TORSDOF 1
ENDMDL
MODEL 5
REMARK VINA RESULT:    -3.607     10.087     10.288
REMARK INTER + INTRA:          -3.712
REMARK INTER:                  -3.712
REMARK INTRA:                   0.000
REMARK UNBOUND:                 0.000
REMARK  1 active torsions:
REMARK  status: ('A' for Active; 'I' for Inactive)
REMARK    1  A    between atoms: O_1  and  N_3 
REMARK       I    between atoms: N_3  and  C_4 
ROOT
ATOM      1  O   UNL d   1       7.751 -15.845  14.222  0.00  0.00    -0.272 OA
ATOM      2  N   UNL d   1       8.501 -15.021  15.548  0.00  0.00    -0.238 N 
ATOM      3  C   UNL d   1       8.458 -15.804  14.927  0.00  0.00     0.236 C 
ATOM      4  C   UNL d   1       9.122 -16.547  15.013  0.00  0.00     0.119 C 
ATOM      5  H   UNL d   1       8.940 -14.996  15.986  0.00  0.00     0.197 HD
ENDROOT
BRANCH   2   6
ATOM      6  O   UNL d   1       7.837 -14.279  15.463  0.00  0.00    -0.287 OA
ATOM      7  H   UNL d   1       7.261 -14.351  15.683  0.00  0.00     0.244 HD
ENDBRANCH   2   6
TORSDOF 1
ENDMDL
