MODEL 1
REMARK VINA RESULT:     0.000      0.000      0.000
REMARK INTER + INTRA:           3.543
REMARK INTER:                   0.000
REMARK INTRA:                   3.543
REMARK UNBOUND:                 3.543
REMARK  2 active torsions:
REMARK  status: ('A' for Active; 'I' for Inactive)
REMARK    1  A    between atoms: C_5  and  O_1 
REMARK    2  A    between atoms: C_4  and  C_9 
ROOT
ATOM      1  C   UNL d   1       0.867  -5.229  -2.016  0.00  0.00     0.028 A 
ATOM      2  C   UNL d   1       1.602  -4.623  -2.321  0.00  0.00     0.019 A 
ATOM      3  C   UNL d   1       2.054  -4.787  -3.198  0.00  0.00    -0.003 A 
ATOM      4  C   UNL d   1       0.584  -5.998  -2.588  0.00  0.00     0.058 A 
ATOM      5  C   UNL d   1       1.771  -5.557  -3.770  0.00  0.00     0.009 A 
ATOM      6  C   UNL d   1       1.036  -6.162  -3.465  0.00  0.00     0.038 A 
ATOM      7  C   UNL d   1       0.387  -5.071  -1.105  0.00  0.00     0.012 A 
ATOM      8  C   UNL d   1       1.908  -3.817  -1.736  0.00  0.00    -0.019 A 
ATOM      9  C   UNL d   1       0.676  -4.271  -0.504  0.00  0.00     0.034 A 
ATOM     10  C   UNL d   1      -0.102  -6.253  -1.906  0.00  0.00     0.046 C 
ATOM     11  C   UNL d   1       1.442  -3.640  -0.822  0.00  0.00    -0.087 A 
ATOM     12  C   UNL d   1       1.728  -2.869  -0.252  0.00  0.00     0.043 C 
ENDROOT
BRANCH   3  13
ATOM     13  C   UNL d   1       2.789  -4.182  -3.502  0.00  0.00    -0.018 C 
ATOM     14  C   UNL d   1       3.738  -4.386  -3.261  0.00  0.00     0.010 C 
ATOM     15  C   UNL d   1       2.576  -3.372  -4.049  0.00  0.00     0.010 C 
ENDBRANCH   3  13
BRANCH   4  16
ATOM     16  O   UNL d   1      -0.004  -6.792  -2.743  0.00  0.00    -0.390 OA
ATOM     17  H   UNL d   1       0.248  -7.345  -2.865  0.00  0.00     0.210 HD
ENDBRANCH   4  16
TORSDOF 2
ENDMDL
MODEL 2
REMARK VINA RESULT:     0.000     46.413     47.337
REMARK INTER + INTRA:           3.543
REMARK INTER:                   0.000
REMARK INTRA:                   3.543
REMARK UNBOUND:                 3.543
REMARK  2 active torsions:
REMARK  status: ('A' for Active; 'I' for Inactive)
REMARK    1  A    between atoms: C_5  and  O_1 
REMARK    2  A    between atoms: C_4  and  C_9 
ROOT
ATOM      1  C   UNL d   1      14.469  21.487 -39.345  0.00  0.00     0.028 A 
ATOM      2  C   UNL d   1      15.364  21.065 -39.490  0.00  0.00     0.019 A 
ATOM      3  C   UNL d   1      15.430  20.084 -39.674  0.00  0.00    -0.003 A 
ATOM      4  C   UNL d   1      13.641  20.928 -39.383  0.00  0.00     0.058 A 
ATOM      5  C   UNL d   1      14.602  19.526 -39.713  0.00  0.00     0.009 A 
ATOM      6  C   UNL d   1      13.707  19.948 -39.567  0.00  0.00     0.038 A 
ATOM      7  C   UNL d   1      14.384  22.507 -39.152  0.00  0.00     0.012 A 
ATOM      8  C   UNL d   1      16.236  21.634 -39.454  0.00  0.00    -0.019 A 
ATOM      9  C   UNL d   1      15.242  23.096 -39.111  0.00  0.00     0.034 A 
ATOM     10  C   UNL d   1      13.086  21.738 -39.193  0.00  0.00     0.046 C 
ATOM     11  C   UNL d   1      16.175  22.656 -39.262  0.00  0.00    -0.087 A 
ATOM     12  C   UNL d   1      17.005  23.211 -39.225  0.00  0.00     0.043 C 
ENDROOT
BRANCH   3  13
ATOM     13  C   UNL d   1      16.325  19.662 -39.820  0.00  0.00    -0.018 C 
ATOM     14  C   UNL d   1      16.708  19.606 -40.742  0.00  0.00     0.010 C 
ATOM     15  C   UNL d   1      16.838  19.296 -39.043  0.00  0.00     0.010 C 
ENDBRANCH   3  13
BRANCH   4  16
ATOM     16  O   UNL d   1      12.646  20.849 -39.322  0.00  0.00    -0.390 OA
ATOM     17  H   UNL d   1      12.360  20.945 -38.780  0.00  0.00     0.210 HD
ENDBRANCH   4  16
TORSDOF 2
ENDMDL
MODEL 3
REMARK VINA RESULT:     0.000     44.271     45.241
REMARK INTER + INTRA:           3.543
REMARK INTER:                   0.000
REMARK INTRA:                   3.543
REMARK UNBOUND:                 3.543
REMARK  2 active torsions:
REMARK  status: ('A' for Active; 'I' for Inactive)
REMARK    1  A    between atoms: C_5  and  O_1 
REMARK    2  A    between atoms: C_4  and  C_9 
ROOT
ATOM      1  C   UNL d   1      14.876  20.823 -36.961  0.00  0.00     0.028 A 
ATOM      2  C   UNL d   1      15.771  20.401 -37.107  0.00  0.00     0.019 A 
ATOM      3  C   UNL d   1      15.838  19.420 -37.291  0.00  0.00    -0.003 A 
ATOM      4  C   UNL d   1      14.048  20.264 -37.000  0.00  0.00     0.058 A 
ATOM      5  C   UNL d   1      15.009  18.861 -37.329  0.00  0.00     0.009 A 
ATOM      6  C   UNL d   1      14.114  19.283 -37.184  0.00  0.00     0.038 A 
ATOM      7  C   UNL d   1      14.791  21.843 -36.769  0.00  0.00     0.012 A 
ATOM      8  C   UNL d   1      16.643  20.969 -37.070  0.00  0.00    -0.019 A 
ATOM      9  C   UNL d   1      15.650  22.431 -36.727  0.00  0.00     0.034 A 
ATOM     10  C   UNL d   1      13.493  21.074 -36.810  0.00  0.00     0.046 C 
ATOM     11  C   UNL d   1      16.582  21.992 -36.879  0.00  0.00    -0.087 A 
ATOM     12  C   UNL d   1      17.412  22.547 -36.841  0.00  0.00     0.043 C 
ENDROOT
BRANCH   3  13
ATOM     13  C   UNL d   1      16.733  18.998 -37.436  0.00  0.00    -0.018 C 
ATOM     14  C   UNL d   1      17.115  18.942 -38.358  0.00  0.00     0.010 C 
ATOM     15  C   UNL d   1      17.245  18.632 -36.659  0.00  0.00     0.010 C 
ENDBRANCH   3  13
BRANCH   4  16
ATOM     16  O   UNL d   1      13.053  20.185 -36.938  0.00  0.00    -0.390 OA
ATOM     17  H   UNL d   1      12.797  19.677 -36.691  0.00  0.00     0.210 HD
ENDBRANCH   4  16
TORSDOF 2
ENDMDL
MODEL 4
REMARK VINA RESULT:     0.000      7.442      7.933
REMARK INTER + INTRA:           3.543
REMARK INTER:                   0.000
REMARK INTRA:                   3.543
REMARK UNBOUND:                 3.543
REMARK  2 active torsions:
REMARK  status: ('A' for Active; 'I' for Inactive)
REMARK    1  A    between atoms: C_5  and  O_1 
REMARK    2  A    between atoms: C_4  and  C_9 
ROOT
ATOM      1  C   UNL d   1      -5.218  -0.239  -3.132  0.00  0.00     0.028 A 
ATOM      2  C   UNL d   1      -4.326   0.211  -3.160  0.00  0.00     0.019 A 
ATOM      3  C   UNL d   1      -3.528  -0.235  -2.755  0.00  0.00    -0.003 A 
ATOM      4  C   UNL d   1      -5.313  -1.135  -2.698  0.00  0.00     0.058 A 
ATOM      5  C   UNL d   1      -3.622  -1.131  -2.321  0.00  0.00     0.009 A 
ATOM      6  C   UNL d   1      -4.515  -1.581  -2.293  0.00  0.00     0.038 A 
ATOM      7  C   UNL d   1      -6.059   0.213  -3.549  0.00  0.00     0.012 A 
ATOM      8  C   UNL d   1      -4.211   1.145  -3.609  0.00  0.00    -0.019 A 
ATOM      9  C   UNL d   1      -5.968   1.147  -4.003  0.00  0.00     0.034 A 
ATOM     10  C   UNL d   1      -6.289  -1.137  -2.915  0.00  0.00     0.046 C 
ATOM     11  C   UNL d   1      -5.038   1.616  -4.033  0.00  0.00    -0.087 A 
ATOM     12  C   UNL d   1      -4.940   2.511  -4.465  0.00  0.00     0.043 C 
ENDROOT
BRANCH   3  13
ATOM     13  C   UNL d   1      -2.635   0.215  -2.784  0.00  0.00    -0.018 C 
ATOM     14  C   UNL d   1      -2.358   0.825  -2.041  0.00  0.00     0.010 C 
ATOM     15  C   UNL d   1      -2.019   0.056  -3.555  0.00  0.00     0.010 C 
ENDBRANCH   3  13
BRANCH   4  16
ATOM     16  O   UNL d   1      -5.883  -1.912  -2.431  0.00  0.00    -0.390 OA
ATOM     17  H   UNL d   1      -5.649  -2.359  -2.070  0.00  0.00     0.210 HD
ENDBRANCH   4  16
TORSDOF 2
ENDMDL
MODEL 5
REMARK VINA RESULT:     0.000      3.816      4.955
REMARK INTER + INTRA:           3.543
REMARK INTER:                   0.000
REMARK INTRA:                   3.543
REMARK UNBOUND:                 3.543
REMARK  2 active torsions:
REMARK  status: ('A' for Active; 'I' for Inactive)
REMARK    1  A    between atoms: C_5  and  O_1 
REMARK    2  A    between atoms: C_4  and  C_9 
ROOT
ATOM      1  C   UNL d   1       0.113  -2.806  -4.706  0.00  0.00     0.028 A 
ATOM      2  C   UNL d   1      -0.560  -2.069  -4.650  0.00  0.00     0.019 A 
ATOM      3  C   UNL d   1      -0.269  -1.142  -4.414  0.00  0.00    -0.003 A 
ATOM      4  C   UNL d   1       1.078  -2.616  -4.525  0.00  0.00     0.058 A 
ATOM      5  C   UNL d   1       0.696  -0.952  -4.233  0.00  0.00     0.009 A 
ATOM      6  C   UNL d   1       1.370  -1.689  -4.289  0.00  0.00     0.038 A 
ATOM      7  C   UNL d   1      -0.175  -3.776  -4.951  0.00  0.00     0.012 A 
ATOM      8  C   UNL d   1      -1.569  -2.251  -4.835  0.00  0.00    -0.019 A 
ATOM      9  C   UNL d   1      -1.178  -3.982  -5.140  0.00  0.00     0.034 A 
ATOM     10  C   UNL d   1       1.299  -3.576  -4.694  0.00  0.00     0.046 C 
ATOM     11  C   UNL d   1      -1.880  -3.214  -5.082  0.00  0.00    -0.087 A 
ATOM     12  C   UNL d   1      -2.846  -3.401  -5.262  0.00  0.00     0.043 C 
ENDROOT
BRANCH   3  13
ATOM     13  C   UNL d   1      -0.943  -0.405  -4.358  0.00  0.00    -0.018 C 
ATOM     14  C   UNL d   1      -1.157   0.139  -5.170  0.00  0.00     0.010 C 
ATOM     15  C   UNL d   1      -1.402  -0.212  -3.491  0.00  0.00     0.010 C 
ENDBRANCH   3  13
BRANCH   4  16
ATOM     16  O   UNL d   1       2.024  -2.931  -4.453  0.00  0.00    -0.390 OA
ATOM     17  H   UNL d   1       2.197  -3.288  -3.977  0.00  0.00     0.210 HD
ENDBRANCH   4  16
TORSDOF 2
ENDMDL
