MODEL 1
REMARK VINA RESULT:    -0.001      0.000      0.000
REMARK INTER + INTRA:           1.304
REMARK INTER:                   0.000
REMARK INTRA:                   1.304
REMARK UNBOUND:                 1.304
REMARK  6 active torsions:
REMARK  status: ('A' for Active; 'I' for Inactive)
REMARK    1  A    between atoms: C_22  and  O_1 
REMARK    2  A    between atoms: C_24  and  O_2 
REMARK    3  A    between atoms: O_3  and  C_30 
REMARK    4  A    between atoms: O_4  and  C_33 
REMARK    5  A    between atoms: C_14  and  C_30 
REMARK    6  A    between atoms: C_19  and  C_33 
ROOT
ATOM      1  C   UNL d   1       0.766   8.850   8.900  0.00  0.00    -0.028 A 
ATOM      2  C   UNL d   1       1.314   9.679   9.013  0.00  0.00     0.007 A 
ATOM      3  C   UNL d   1       1.950   9.791   9.831  0.00  0.00    -0.033 A 
ATOM      4  C   UNL d   1       0.159   8.756   8.110  0.00  0.00    -0.013 A 
ATOM      5  C   UNL d   1       2.016   9.031  10.539  0.00  0.00     0.007 A 
ATOM      6  C   UNL d   1       0.816   8.077   9.596  0.00  0.00     0.011 A 
ATOM      7  C   UNL d   1       0.101   9.490   7.434  0.00  0.00    -0.069 A 
ATOM      8  C   UNL d   1       1.445   8.168  10.421  0.00  0.00     0.007 A 
ATOM      9  C   UNL d   1       2.672   9.126  11.399  0.00  0.00     0.010 A 
ATOM     10  C   UNL d   1      -0.526   9.406   6.606  0.00  0.00     0.038 A 
ATOM     11  C   UNL d   1       1.256  10.413   8.337  0.00  0.00     0.033 A 
ATOM     12  C   UNL d   1       2.535  10.699   9.932  0.00  0.00     0.044 A 
ATOM     13  C   UNL d   1      -0.405   7.886   8.006  0.00  0.00     0.016 A 
ATOM     14  C   UNL d   1      -1.100   8.546   6.482  0.00  0.00     0.053 A 
ATOM     15  C   UNL d   1       0.382   7.945   9.083  0.00  0.00     0.016 C 
ATOM     16  C   UNL d   1      -1.039   7.781   7.186  0.00  0.00     0.022 A 
ATOM     17  C   UNL d   1       3.266  10.024  11.522  0.00  0.00     0.157 A 
ATOM     18  C   UNL d   1       0.649  10.319   7.547  0.00  0.00    -0.022 A 
ATOM     19  C   UNL d   1       3.198  10.817  10.784  0.00  0.00     0.148 A 
ATOM     20  C   UNL d   1       1.886  10.521   9.150  0.00  0.00     0.016 C 
ATOM     21  C   UNL d   1      -0.014   7.883   8.568  0.00  0.00     0.021 C 
ATOM     22  C   UNL d   1      -0.572  10.216   5.886  0.00  0.00    -0.005 A 
ATOM     23  C   UNL d   1      -1.760   8.436   5.628  0.00  0.00     0.021 A 
ATOM     24  C   UNL d   1      -1.225  10.129   5.024  0.00  0.00    -0.014 A 
ATOM     25  C   UNL d   1       2.386   8.223  11.720  0.00  0.00     0.020 C 
ATOM     26  C   UNL d   1      -1.823   9.233   4.894  0.00  0.00     0.006 A 
ATOM     27  C   UNL d   1      -0.017  11.038   6.016  0.00  0.00     0.011 C 
ATOM     28  C   UNL d   1      -1.275  10.870   4.354  0.00  0.00     0.010 C 
ENDROOT
BRANCH   9  29
ATOM     29  C   UNL d   1       3.053   8.753  12.244  0.00  0.00     0.176 C 
BRANCH  29  30
ATOM     30  O   UNL d   1       2.589   8.002  12.714  0.00  0.00    -0.400 OA
ATOM     31  H   UNL d   1       2.786   7.419  12.636  0.00  0.00     0.209 HD
ENDBRANCH  29  30
ENDBRANCH   9  29
BRANCH  17  32
ATOM     32  O   UNL d   1       3.874  10.123  12.309  0.00  0.00    -0.392 OA
ATOM     33  H   UNL d   1       3.711   9.884  12.859  0.00  0.00     0.210 HD
ENDBRANCH  17  32
BRANCH  19  34
ATOM     34  O   UNL d   1       3.741  11.650  10.887  0.00  0.00    -0.393 OA
ATOM     35  H   UNL d   1       4.131  11.708  11.365  0.00  0.00     0.210 HD
ENDBRANCH  19  34
BRANCH  14  36
ATOM     36  C   UNL d   1      -1.651   7.721   6.361  0.00  0.00     0.149 C 
ATOM     37  O   UNL d   1      -1.282   6.944   5.850  0.00  0.00    -0.649 OA
BRANCH  36  38
ATOM     38  O   UNL d   1      -2.570   7.671   6.752  0.00  0.00    -0.776 OA
ATOM     39  H   UNL d   1      -2.680   7.302   7.238  0.00  0.00     0.167 HD
ENDBRANCH  36  38
ENDBRANCH  14  36
TORSDOF 6
ENDMDL
MODEL 2
REMARK VINA RESULT:    -0.001     31.681     33.354
REMARK INTER + INTRA:           1.304
REMARK INTER:                   0.000
REMARK INTRA:                   1.304
REMARK UNBOUND:                 1.304
REMARK  6 active torsions:
REMARK  status: ('A' for Active; 'I' for Inactive)
REMARK    1  A    between atoms: C_22  and  O_1 
REMARK    2  A    between atoms: C_24  and  O_2 
REMARK    3  A    between atoms: O_3  and  C_30 
REMARK    4  A    between atoms: O_4  and  C_33 
REMARK    5  A    between atoms: C_14  and  C_30 
REMARK    6  A    between atoms: C_19  and  C_33 
ROOT
ATOM      1  C   UNL d   1      -5.349  -3.256 -21.315  0.00  0.00    -0.028 A 
ATOM      2  C   UNL d   1      -4.774  -3.923 -21.789  0.00  0.00     0.007 A 
ATOM      3  C   UNL d   1      -4.922  -4.945 -21.658  0.00  0.00    -0.033 A 
ATOM      4  C   UNL d   1      -5.195  -2.277 -21.450  0.00  0.00    -0.013 A 
ATOM      5  C   UNL d   1      -5.679  -5.278 -21.024  0.00  0.00     0.007 A 
ATOM      6  C   UNL d   1      -6.111  -3.565 -20.676  0.00  0.00     0.011 A 
ATOM      7  C   UNL d   1      -4.467  -1.965 -22.060  0.00  0.00    -0.069 A 
ATOM      8  C   UNL d   1      -6.277  -4.583 -20.530  0.00  0.00     0.007 A 
ATOM      9  C   UNL d   1      -5.852  -6.338 -20.871  0.00  0.00     0.010 A 
ATOM     10  C   UNL d   1      -4.294  -0.949 -22.212  0.00  0.00     0.038 A 
ATOM     11  C   UNL d   1      -4.046  -3.611 -22.399  0.00  0.00     0.033 A 
ATOM     12  C   UNL d   1      -4.286  -5.650 -22.183  0.00  0.00     0.044 A 
ATOM     13  C   UNL d   1      -5.802  -1.594 -20.949  0.00  0.00     0.016 A 
ATOM     14  C   UNL d   1      -4.889  -0.248 -21.721  0.00  0.00     0.053 A 
ATOM     15  C   UNL d   1      -6.063  -2.884 -20.722  0.00  0.00     0.016 C 
ATOM     16  C   UNL d   1      -5.648  -0.573 -21.086  0.00  0.00     0.022 A 
ATOM     17  C   UNL d   1      -5.229  -7.061 -21.386  0.00  0.00     0.157 A 
ATOM     18  C   UNL d   1      -3.892  -2.632 -22.535  0.00  0.00    -0.022 A 
ATOM     19  C   UNL d   1      -4.440  -6.716 -22.046  0.00  0.00     0.148 A 
ATOM     20  C   UNL d   1      -4.196  -4.626 -22.266  0.00  0.00     0.016 C 
ATOM     21  C   UNL d   1      -5.963  -2.245 -20.810  0.00  0.00     0.021 C 
ATOM     22  C   UNL d   1      -3.499  -0.635 -22.878  0.00  0.00    -0.005 A 
ATOM     23  C   UNL d   1      -4.729   0.815 -21.863  0.00  0.00     0.021 A 
ATOM     24  C   UNL d   1      -3.319   0.424 -23.036  0.00  0.00    -0.014 A 
ATOM     25  C   UNL d   1      -6.604  -6.129 -20.246  0.00  0.00     0.020 C 
ATOM     26  C   UNL d   1      -3.938   1.154 -22.525  0.00  0.00     0.006 A 
ATOM     27  C   UNL d   1      -2.933  -1.316 -23.345  0.00  0.00     0.011 C 
ATOM     28  C   UNL d   1      -2.588   0.724 -23.648  0.00  0.00     0.010 C 
ENDROOT
BRANCH   9  29
ATOM     29  C   UNL d   1      -6.364  -7.080 -20.439  0.00  0.00     0.176 C 
BRANCH  29  30
ATOM     30  O   UNL d   1      -6.915  -6.900 -19.625  0.00  0.00    -0.400 OA
ATOM     31  H   UNL d   1      -7.533  -6.939 -19.654  0.00  0.00     0.209 HD
ENDBRANCH  29  30
ENDBRANCH   9  29
BRANCH  17  32
ATOM     32  O   UNL d   1      -5.379  -8.041 -21.253  0.00  0.00    -0.392 OA
ATOM     33  H   UNL d   1      -4.978  -8.451 -21.487  0.00  0.00     0.210 HD
ENDBRANCH  17  32
BRANCH  19  34
ATOM     34  O   UNL d   1      -3.860  -7.374 -22.525  0.00  0.00    -0.393 OA
ATOM     35  H   UNL d   1      -3.313  -7.194 -22.756  0.00  0.00     0.210 HD
ENDBRANCH  19  34
BRANCH  14  36
ATOM     36  C   UNL d   1      -5.459   0.424 -21.250  0.00  0.00     0.149 C 
ATOM     37  O   UNL d   1      -5.189   0.766 -20.350  0.00  0.00    -0.649 OA
BRANCH  36  38
ATOM     38  O   UNL d   1      -6.299   0.756 -21.679  0.00  0.00    -0.776 OA
ATOM     39  H   UNL d   1      -6.738   1.025 -21.334  0.00  0.00     0.167 HD
ENDBRANCH  36  38
ENDBRANCH  14  36
TORSDOF 6
ENDMDL
MODEL 3
REMARK VINA RESULT:    -0.001     28.312     30.767
REMARK INTER + INTRA:           1.304
REMARK INTER:                   0.000
REMARK INTRA:                   1.304
REMARK UNBOUND:                 1.304
REMARK  6 active torsions:
REMARK  status: ('A' for Active; 'I' for Inactive)
REMARK    1  A    between atoms: C_22  and  O_1 
REMARK    2  A    between atoms: C_24  and  O_2 
REMARK    3  A    between atoms: O_3  and  C_30 
REMARK    4  A    between atoms: O_4  and  C_33 
REMARK    5  A    between atoms: C_14  and  C_30 
REMARK    6  A    between atoms: C_19  and  C_33 
ROOT
ATOM      1  C   UNL d   1      -3.248  16.623 -20.234  0.00  0.00    -0.028 A 
ATOM      2  C   UNL d   1      -3.127  16.066 -21.055  0.00  0.00     0.007 A 
ATOM      3  C   UNL d   1      -3.166  15.026 -21.007  0.00  0.00    -0.033 A 
ATOM      4  C   UNL d   1      -3.208  17.620 -20.296  0.00  0.00    -0.013 A 
ATOM      5  C   UNL d   1      -3.334  14.560 -20.091  0.00  0.00     0.007 A 
ATOM      6  C   UNL d   1      -3.417  16.179 -19.307  0.00  0.00     0.011 A 
ATOM      7  C   UNL d   1      -3.046  18.060 -21.179  0.00  0.00    -0.069 A 
ATOM      8  C   UNL d   1      -3.460  15.140 -19.235  0.00  0.00     0.007 A 
ATOM      9  C   UNL d   1      -3.379  13.478 -20.016  0.00  0.00     0.010 A 
ATOM     10  C   UNL d   1      -3.001  19.098 -21.259  0.00  0.00     0.038 A 
ATOM     11  C   UNL d   1      -2.965  16.506 -21.939  0.00  0.00     0.033 A 
ATOM     12  C   UNL d   1      -3.032  14.442 -21.912  0.00  0.00     0.044 A 
ATOM     13  C   UNL d   1      -3.336  18.187 -19.431  0.00  0.00     0.016 A 
ATOM     14  C   UNL d   1      -3.127  19.685 -20.408  0.00  0.00     0.053 A 
ATOM     15  C   UNL d   1      -3.402  16.863 -19.275  0.00  0.00     0.016 C 
ATOM     16  C   UNL d   1      -3.295  19.226 -19.487  0.00  0.00     0.022 A 
ATOM     17  C   UNL d   1      -3.248  12.874 -20.906  0.00  0.00     0.157 A 
ATOM     18  C   UNL d   1      -2.925  17.503 -22.000  0.00  0.00    -0.022 A 
ATOM     19  C   UNL d   1      -3.073  13.359 -21.861  0.00  0.00     0.148 A 
ATOM     20  C   UNL d   1      -3.005  15.473 -21.887  0.00  0.00     0.016 C 
ATOM     21  C   UNL d   1      -3.375  17.513 -19.315  0.00  0.00     0.021 C 
ATOM     22  C   UNL d   1      -2.825  19.553 -22.227  0.00  0.00    -0.005 A 
ATOM     23  C   UNL d   1      -3.084  20.767 -20.466  0.00  0.00     0.021 A 
ATOM     24  C   UNL d   1      -2.778  20.633 -22.311  0.00  0.00    -0.014 A 
ATOM     25  C   UNL d   1      -3.542  13.550 -19.031  0.00  0.00     0.020 C 
ATOM     26  C   UNL d   1      -2.909  21.245 -21.424  0.00  0.00     0.006 A 
ATOM     27  C   UNL d   1      -2.706  18.980 -23.039  0.00  0.00     0.011 C 
ATOM     28  C   UNL d   1      -2.616  21.063 -23.200  0.00  0.00     0.010 C 
ENDROOT
BRANCH   9  29
ATOM     29  C   UNL d   1      -3.496  12.651 -19.467  0.00  0.00     0.176 C 
BRANCH  29  30
ATOM     30  O   UNL d   1      -3.384  12.689 -18.474  0.00  0.00    -0.400 OA
ATOM     31  H   UNL d   1      -3.250  12.174 -18.157  0.00  0.00     0.209 HD
ENDBRANCH  29  30
ENDBRANCH   9  29
BRANCH  17  32
ATOM     32  O   UNL d   1      -3.287  11.877 -20.849  0.00  0.00    -0.392 OA
ATOM     33  H   UNL d   1      -2.977  11.530 -21.259  0.00  0.00     0.210 HD
ENDBRANCH  17  32
BRANCH  19  34
ATOM     34  O   UNL d   1      -2.951  12.812 -22.689  0.00  0.00    -0.393 OA
ATOM     35  H   UNL d   1      -3.109  12.212 -22.691  0.00  0.00     0.210 HD
ENDBRANCH  19  34
BRANCH  14  36
ATOM     36  C   UNL d   1      -3.247  20.248 -19.590  0.00  0.00     0.149 C 
ATOM     37  O   UNL d   1      -2.452  20.504 -19.039  0.00  0.00    -0.649 OA
BRANCH  36  38
ATOM     38  O   UNL d   1      -4.160  20.556 -19.324  0.00  0.00    -0.776 OA
ATOM     39  H   UNL d   1      -4.304  21.158 -19.351  0.00  0.00     0.167 HD
ENDBRANCH  36  38
ENDBRANCH  14  36
TORSDOF 6
ENDMDL
MODEL 4
REMARK VINA RESULT:     0.000     40.278     43.280
REMARK INTER + INTRA:           1.304
REMARK INTER:                   0.000
REMARK INTRA:                   1.304
REMARK UNBOUND:                 1.304
REMARK  6 active torsions:
REMARK  status: ('A' for Active; 'I' for Inactive)
REMARK    1  A    between atoms: C_22  and  O_1 
REMARK    2  A    between atoms: C_24  and  O_2 
REMARK    3  A    between atoms: O_3  and  C_30 
REMARK    4  A    between atoms: O_4  and  C_33 
REMARK    5  A    between atoms: C_14  and  C_30 
REMARK    6  A    between atoms: C_19  and  C_33 
ROOT
ATOM      1  C   UNL d   1      35.624  33.710   8.114  0.00  0.00    -0.028 A 
ATOM      2  C   UNL d   1      36.136  33.725   8.972  0.00  0.00     0.007 A 
ATOM      3  C   UNL d   1      36.035  32.957   9.669  0.00  0.00    -0.033 A 
ATOM      4  C   UNL d   1      35.730  34.455   7.455  0.00  0.00    -0.013 A 
ATOM      5  C   UNL d   1      35.392  32.163   9.468  0.00  0.00     0.007 A 
ATOM      6  C   UNL d   1      34.975  32.926   7.892  0.00  0.00     0.011 A 
ATOM      7  C   UNL d   1      36.350  35.214   7.654  0.00  0.00    -0.069 A 
ATOM      8  C   UNL d   1      34.859  32.147   8.574  0.00  0.00     0.007 A 
ATOM      9  C   UNL d   1      35.271  31.351  10.178  0.00  0.00     0.010 A 
ATOM     10  C   UNL d   1      36.471  35.997   6.978  0.00  0.00     0.038 A 
ATOM     11  C   UNL d   1      36.755  34.485   9.172  0.00  0.00     0.033 A 
ATOM     12  C   UNL d   1      36.602  32.995  10.593  0.00  0.00     0.044 A 
ATOM     13  C   UNL d   1      35.190  34.425   6.565  0.00  0.00     0.016 A 
ATOM     14  C   UNL d   1      35.941  35.988   6.081  0.00  0.00     0.053 A 
ATOM     15  C   UNL d   1      34.999  33.399   7.398  0.00  0.00     0.016 C 
ATOM     16  C   UNL d   1      35.296  35.197   5.873  0.00  0.00     0.022 A 
ATOM     17  C   UNL d   1      35.827  31.367  11.109  0.00  0.00     0.157 A 
ATOM     18  C   UNL d   1      36.862  35.229   8.513  0.00  0.00    -0.022 A 
ATOM     19  C   UNL d   1      36.497  32.195  11.319  0.00  0.00     0.148 A 
ATOM     20  C   UNL d   1      36.653  33.720   9.861  0.00  0.00     0.016 C 
ATOM     21  C   UNL d   1      35.068  33.885   6.968  0.00  0.00     0.021 C 
ATOM     22  C   UNL d   1      37.149  36.810   7.216  0.00  0.00    -0.005 A 
ATOM     23  C   UNL d   1      36.051  36.792   5.361  0.00  0.00     0.021 A 
ATOM     24  C   UNL d   1      37.275  37.625   6.511  0.00  0.00    -0.014 A 
ATOM     25  C   UNL d   1      34.618  30.907   9.564  0.00  0.00     0.020 C 
ATOM     26  C   UNL d   1      36.723  37.616   5.577  0.00  0.00     0.006 A 
ATOM     27  C   UNL d   1      37.653  36.808   8.080  0.00  0.00     0.011 C 
ATOM     28  C   UNL d   1      37.897  38.379   6.721  0.00  0.00     0.010 C 
ENDROOT
BRANCH   9  29
ATOM     29  C   UNL d   1      34.850  30.483  10.440  0.00  0.00     0.176 C 
BRANCH  29  30
ATOM     30  O   UNL d   1      34.424  29.904   9.745  0.00  0.00    -0.400 OA
ATOM     31  H   UNL d   1      34.252  30.147   9.201  0.00  0.00     0.209 HD
ENDBRANCH  29  30
ENDBRANCH   9  29
BRANCH  17  32
ATOM     32  O   UNL d   1      35.723  30.625  11.771  0.00  0.00    -0.392 OA
ATOM     33  H   UNL d   1      35.874  30.716  12.366  0.00  0.00     0.210 HD
ENDBRANCH  17  32
BRANCH  19  34
ATOM     34  O   UNL d   1      37.014  32.220  12.174  0.00  0.00    -0.393 OA
ATOM     35  H   UNL d   1      37.396  32.694  12.292  0.00  0.00     0.210 HD
ENDBRANCH  19  34
BRANCH  14  36
ATOM     36  C   UNL d   1      35.432  35.980   5.221  0.00  0.00     0.149 C 
ATOM     37  O   UNL d   1      34.529  36.406   5.171  0.00  0.00    -0.649 OA
BRANCH  36  38
ATOM     38  O   UNL d   1      35.825  35.547   4.411  0.00  0.00    -0.776 OA
ATOM     39  H   UNL d   1      35.951  35.886   3.907  0.00  0.00     0.167 HD
ENDBRANCH  36  38
ENDBRANCH  14  36
TORSDOF 6
ENDMDL
MODEL 5
REMARK VINA RESULT:     0.003     17.101     20.948
REMARK INTER + INTRA:           1.308
REMARK INTER:                   0.000
REMARK INTRA:                   1.308
REMARK UNBOUND:                 1.304
REMARK  6 active torsions:
REMARK  status: ('A' for Active; 'I' for Inactive)
REMARK    1  A    between atoms: C_22  and  O_1 
REMARK    2  A    between atoms: C_24  and  O_2 
REMARK    3  A    between atoms: O_3  and  C_30 
REMARK    4  A    between atoms: O_4  and  C_33 
REMARK    5  A    between atoms: C_14  and  C_30 
REMARK    6  A    between atoms: C_19  and  C_33 
ROOT
ATOM      1  C   UNL d   1      -7.587  -4.410  -4.403  0.00  0.00    -0.028 A 
ATOM      2  C   UNL d   1      -6.758  -4.855  -4.742  0.00  0.00     0.007 A 
ATOM      3  C   UNL d   1      -6.757  -5.360  -5.653  0.00  0.00    -0.033 A 
ATOM      4  C   UNL d   1      -7.572  -3.928  -3.527  0.00  0.00    -0.013 A 
ATOM      5  C   UNL d   1      -7.631  -5.404  -6.217  0.00  0.00     0.007 A 
ATOM      6  C   UNL d   1      -8.472  -4.440  -4.950  0.00  0.00     0.011 A 
ATOM      7  C   UNL d   1      -6.729  -3.891  -2.990  0.00  0.00    -0.069 A 
ATOM      8  C   UNL d   1      -8.495  -4.941  -5.863  0.00  0.00     0.007 A 
ATOM      9  C   UNL d   1      -7.655  -5.925  -7.169  0.00  0.00     0.010 A 
ATOM     10  C   UNL d   1      -6.698  -3.392  -2.076  0.00  0.00     0.038 A 
ATOM     11  C   UNL d   1      -5.915  -4.817  -4.206  0.00  0.00     0.033 A 
ATOM     12  C   UNL d   1      -5.846  -5.835  -6.001  0.00  0.00     0.044 A 
ATOM     13  C   UNL d   1      -8.444  -3.470  -3.186  0.00  0.00     0.016 A 
ATOM     14  C   UNL d   1      -7.558  -2.927  -1.716  0.00  0.00     0.053 A 
ATOM     15  C   UNL d   1      -8.535  -4.095  -4.362  0.00  0.00     0.016 C 
ATOM     16  C   UNL d   1      -8.436  -2.966  -2.274  0.00  0.00     0.022 A 
ATOM     17  C   UNL d   1      -6.756  -6.407  -7.537  0.00  0.00     0.157 A 
ATOM     18  C   UNL d   1      -5.900  -4.335  -3.330  0.00  0.00    -0.022 A 
ATOM     19  C   UNL d   1      -5.845  -6.362  -6.950  0.00  0.00     0.148 A 
ATOM     20  C   UNL d   1      -5.918  -5.319  -5.111  0.00  0.00     0.016 C 
ATOM     21  C   UNL d   1      -8.526  -3.780  -3.791  0.00  0.00     0.021 C 
ATOM     22  C   UNL d   1      -5.773  -3.365  -1.512  0.00  0.00    -0.005 A 
ATOM     23  C   UNL d   1      -7.551  -2.402  -0.766  0.00  0.00     0.021 A 
ATOM     24  C   UNL d   1      -5.741  -2.846  -0.560  0.00  0.00    -0.014 A 
ATOM     25  C   UNL d   1      -8.620  -5.688  -7.278  0.00  0.00     0.020 C 
ATOM     26  C   UNL d   1      -6.636  -2.361  -0.184  0.00  0.00     0.006 A 
ATOM     27  C   UNL d   1      -4.953  -3.816  -1.867  0.00  0.00     0.011 C 
ATOM     28  C   UNL d   1      -4.892  -2.815  -0.032  0.00  0.00     0.010 C 
ENDROOT
BRANCH   9  29
ATOM     29  C   UNL d   1      -8.153  -6.223  -7.982  0.00  0.00     0.176 C 
BRANCH  29  30
ATOM     30  O   UNL d   1      -9.010  -5.775  -8.236  0.00  0.00    -0.400 OA
ATOM     31  H   UNL d   1      -9.074  -5.163  -8.163  0.00  0.00     0.209 HD
ENDBRANCH  29  30
ENDBRANCH   9  29
BRANCH  17  32
ATOM     32  O   UNL d   1      -6.766  -6.890  -8.412  0.00  0.00    -0.392 OA
ATOM     33  H   UNL d   1      -6.283  -7.241  -8.579  0.00  0.00     0.210 HD
ENDBRANCH  17  32
BRANCH  19  34
ATOM     34  O   UNL d   1      -5.011  -6.803  -7.280  0.00  0.00    -0.393 OA
ATOM     35  H   UNL d   1      -4.793  -7.309  -6.994  0.00  0.00     0.210 HD
ENDBRANCH  19  34
BRANCH  14  36
ATOM     36  C   UNL d   1      -8.383  -2.480  -1.369  0.00  0.00     0.149 C 
ATOM     37  O   UNL d   1      -9.020  -2.988  -0.790  0.00  0.00    -0.649 OA
BRANCH  36  38
ATOM     38  O   UNL d   1      -8.570  -1.526  -1.602  0.00  0.00    -0.776 OA
ATOM     39  H   UNL d   1      -8.396  -1.073  -1.216  0.00  0.00     0.167 HD
ENDBRANCH  36  38
ENDBRANCH  14  36
TORSDOF 6
ENDMDL
