MODEL 1
REMARK VINA RESULT:   -10.825      0.000      0.000
REMARK INTER + INTRA:          -5.658
REMARK INTER:                 -14.543
REMARK INTRA:                   8.885
REMARK UNBOUND:                 8.964
REMARK  9 active torsions:
REMARK  status: ('A' for Active; 'I' for Inactive)
REMARK    1  A    between atoms: O_3  and  C_17 
REMARK    2  A    between atoms: O_4  and  C_18 
REMARK    3  A    between atoms: O_5  and  C_19 
REMARK    4  A    between atoms: O_7  and  C_32 
REMARK    5  A    between atoms: O_9  and  C_36 
REMARK    6  A    between atoms: O_10  and  C_40 
REMARK    7  A    between atoms: C_11  and  C_13 
REMARK    8  A    between atoms: C_15  and  C_20 
REMARK    9  A    between atoms: C_22  and  C_29 
ROOT
ATOM      1  O   UNL d   1      42.475  16.787  -3.273  0.00  0.00    -0.308 OA
ATOM      2  O   UNL d   1      43.725  16.518  -0.483  0.00  0.00    -0.287 OA
ATOM      3  C   UNL d   1      43.493  18.197  -3.546  0.00  0.00     0.045 A 
ATOM      4  C   UNL d   1      43.202  17.456  -2.941  0.00  0.00     0.107 A 
ATOM      5  C   UNL d   1      43.607  17.365  -2.031  0.00  0.00     0.082 A 
ATOM      6  C   UNL d   1      44.190  18.847  -3.242  0.00  0.00     0.082 A 
ATOM      7  C   UNL d   1      44.303  18.015  -1.727  0.00  0.00     0.085 A 
ATOM      8  C   UNL d   1      44.595  18.756  -2.332  0.00  0.00     0.075 A 
ATOM      9  C   UNL d   1      42.166  16.013  -2.648  0.00  0.00     0.090 A 
ATOM     10  C   UNL d   1      43.313  16.599  -1.390  0.00  0.00     0.190 A 
ATOM     11  C   UNL d   1      42.588  15.918  -1.700  0.00  0.00     0.094 A 
ENDROOT
BRANCH   3  12
ATOM     12  C   UNL d   1      43.088  18.288  -4.456  0.00  0.00     0.014 A 
ATOM     13  C   UNL d   1      43.490  17.803  -5.233  0.00  0.00     0.029 A 
ATOM     14  C   UNL d   1      43.085  17.894  -6.143  0.00  0.00    -0.001 A 
ATOM     15  C   UNL d   1      42.279  18.470  -6.276  0.00  0.00     0.017 A 
ATOM     16  C   UNL d   1      41.877  18.955  -5.499  0.00  0.00     0.038 A 
ATOM     17  C   UNL d   1      42.282  18.864  -4.589  0.00  0.00     0.076 A 
BRANCH  14  18
ATOM     18  C   UNL d   1      43.487  17.409  -6.920  0.00  0.00     0.090 A 
ATOM     19  O   UNL d   1      44.438  17.578  -7.177  0.00  0.00    -0.309 OA
ATOM     20  C   UNL d   1      44.839  17.093  -7.954  0.00  0.00     0.095 A 
ATOM     21  C   UNL d   1      44.290  16.439  -8.473  0.00  0.00     0.081 A 
ATOM     22  C   UNL d   1      45.832  17.279  -8.210  0.00  0.00     0.075 A 
ATOM     23  C   UNL d   1      43.338  16.270  -8.216  0.00  0.00     0.190 A 
ATOM     24  C   UNL d   1      44.694  15.926  -9.285  0.00  0.00     0.085 A 
ATOM     25  O   UNL d   1      42.788  15.616  -8.735  0.00  0.00    -0.287 OA
ATOM     26  C   UNL d   1      42.937  16.755  -7.439  0.00  0.00     0.094 A 
ATOM     27  C   UNL d   1      45.685  16.097  -9.559  0.00  0.00     0.074 A 
ATOM     28  C   UNL d   1      46.258  16.778  -9.018  0.00  0.00     0.071 A 
BRANCH  24  29
ATOM     29  O   UNL d   1      44.135  15.274  -9.797  0.00  0.00    -0.360 OA
ATOM     30  H   UNL d   1      44.162  15.263 -10.417  0.00  0.00     0.217 HD
ENDBRANCH  24  29
BRANCH  28  31
ATOM     31  O   UNL d   1      47.209  16.950  -9.272  0.00  0.00    -0.361 OA
ATOM     32  H   UNL d   1      47.611  17.157  -8.848  0.00  0.00     0.217 HD
ENDBRANCH  28  31
ENDBRANCH  14  18
BRANCH  17  33
ATOM     33  O   UNL d   1      41.880  19.349  -3.812  0.00  0.00    -0.360 OA
ATOM     34  H   UNL d   1      41.677  19.032  -3.320  0.00  0.00     0.217 HD
ENDBRANCH  17  33
ENDBRANCH   3  12
BRANCH   6  35
ATOM     35  O   UNL d   1      44.482  19.587  -3.847  0.00  0.00    -0.360 OA
ATOM     36  H   UNL d   1      44.677  20.124  -3.607  0.00  0.00     0.217 HD
ENDBRANCH   6  35
BRANCH   9  37
ATOM     37  C   UNL d   1      41.469  15.366  -2.956  0.00  0.00    -0.002 A 
ATOM     38  C   UNL d   1      41.209  15.334  -3.922  0.00  0.00     0.017 A 
ATOM     39  C   UNL d   1      40.512  14.687  -4.231  0.00  0.00     0.037 A 
ATOM     40  C   UNL d   1      40.076  14.072  -3.575  0.00  0.00     0.065 A 
ATOM     41  C   UNL d   1      40.336  14.103  -2.609  0.00  0.00     0.037 A 
ATOM     42  C   UNL d   1      41.033  14.751  -2.301  0.00  0.00     0.017 A 
BRANCH  40  43
ATOM     43  O   UNL d   1      39.379  13.424  -3.883  0.00  0.00    -0.361 OA
ATOM     44  H   UNL d   1      39.313  13.304  -4.489  0.00  0.00     0.217 HD
ENDBRANCH  40  43
ENDBRANCH   9  37
BRANCH   7  45
ATOM     45  O   UNL d   1      44.708  17.924  -0.817  0.00  0.00    -0.360 OA
ATOM     46  H   UNL d   1      45.325  17.908  -0.752  0.00  0.00     0.217 HD
ENDBRANCH   7  45
TORSDOF 9
ENDMDL
MODEL 2
REMARK VINA RESULT:   -10.167      1.381      3.679
REMARK INTER + INTRA:          -4.770
REMARK INTER:                 -13.307
REMARK INTRA:                   8.537
REMARK UNBOUND:                 8.964
REMARK  9 active torsions:
REMARK  status: ('A' for Active; 'I' for Inactive)
REMARK    1  A    between atoms: O_3  and  C_17 
REMARK    2  A    between atoms: O_4  and  C_18 
REMARK    3  A    between atoms: O_5  and  C_19 
REMARK    4  A    between atoms: O_7  and  C_32 
REMARK    5  A    between atoms: O_9  and  C_36 
REMARK    6  A    between atoms: O_10  and  C_40 
REMARK    7  A    between atoms: C_11  and  C_13 
REMARK    8  A    between atoms: C_15  and  C_20 
REMARK    9  A    between atoms: C_22  and  C_29 
ROOT
ATOM      1  O   UNL d   1      42.976  18.114  -2.900  0.00  0.00    -0.308 OA
ATOM      2  O   UNL d   1      44.026  17.066  -0.213  0.00  0.00    -0.287 OA
ATOM      3  C   UNL d   1      42.088  16.606  -3.093  0.00  0.00     0.045 A 
ATOM      4  C   UNL d   1      42.703  17.173  -2.545  0.00  0.00     0.107 A 
ATOM      5  C   UNL d   1      43.047  16.835  -1.669  0.00  0.00     0.082 A 
ATOM      6  C   UNL d   1      41.817  15.701  -2.765  0.00  0.00     0.082 A 
ATOM      7  C   UNL d   1      42.776  15.930  -1.341  0.00  0.00     0.085 A 
ATOM      8  C   UNL d   1      42.161  15.363  -1.889  0.00  0.00     0.075 A 
ATOM      9  C   UNL d   1      43.616  18.710  -2.335  0.00  0.00     0.090 A 
ATOM     10  C   UNL d   1      43.688  17.414  -1.088  0.00  0.00     0.190 A 
ATOM     11  C   UNL d   1      43.975  18.358  -1.422  0.00  0.00     0.094 A 
ENDROOT
BRANCH   3  12
ATOM     12  C   UNL d   1      41.743  16.944  -3.969  0.00  0.00     0.014 A 
ATOM     13  C   UNL d   1      42.256  16.767  -4.809  0.00  0.00     0.029 A 
ATOM     14  C   UNL d   1      41.911  17.105  -5.685  0.00  0.00    -0.001 A 
ATOM     15  C   UNL d   1      41.055  17.620  -5.721  0.00  0.00     0.017 A 
ATOM     16  C   UNL d   1      40.543  17.797  -4.880  0.00  0.00     0.038 A 
ATOM     17  C   UNL d   1      40.887  17.459  -4.004  0.00  0.00     0.076 A 
BRANCH  14  18
ATOM     18  C   UNL d   1      42.424  16.928  -6.525  0.00  0.00     0.090 A 
ATOM     19  O   UNL d   1      43.358  17.272  -6.623  0.00  0.00    -0.309 OA
ATOM     20  C   UNL d   1      43.870  17.095  -7.464  0.00  0.00     0.095 A 
ATOM     21  C   UNL d   1      43.448  16.575  -8.206  0.00  0.00     0.081 A 
ATOM     22  C   UNL d   1      44.842  17.460  -7.551  0.00  0.00     0.075 A 
ATOM     23  C   UNL d   1      42.514  16.231  -8.108  0.00  0.00     0.190 A 
ATOM     24  C   UNL d   1      43.969  16.383  -9.087  0.00  0.00     0.085 A 
ATOM     25  O   UNL d   1      42.093  15.711  -8.851  0.00  0.00    -0.287 OA
ATOM     26  C   UNL d   1      42.002  16.408  -7.268  0.00  0.00     0.094 A 
ATOM     27  C   UNL d   1      44.943  16.738  -9.197  0.00  0.00     0.074 A 
ATOM     28  C   UNL d   1      45.382  17.280  -8.424  0.00  0.00     0.071 A 
BRANCH  24  29
ATOM     29  O   UNL d   1      43.538  15.861  -9.823  0.00  0.00    -0.360 OA
ATOM     30  H   UNL d   1      43.306  15.297  -9.709  0.00  0.00     0.217 HD
ENDBRANCH  24  29
BRANCH  28  31
ATOM     31  O   UNL d   1      46.316  17.625  -8.518  0.00  0.00    -0.361 OA
ATOM     32  H   UNL d   1      46.725  17.320  -8.870  0.00  0.00     0.217 HD
ENDBRANCH  28  31
ENDBRANCH  14  18
BRANCH  17  33
ATOM     33  O   UNL d   1      40.375  17.635  -3.164  0.00  0.00    -0.360 OA
ATOM     34  H   UNL d   1      40.656  17.902  -2.680  0.00  0.00     0.217 HD
ENDBRANCH  17  33
ENDBRANCH   3  12
BRANCH   6  35
ATOM     35  O   UNL d   1      41.202  15.134  -3.313  0.00  0.00    -0.360 OA
ATOM     36  H   UNL d   1      40.921  14.644  -3.056  0.00  0.00     0.217 HD
ENDBRANCH   6  35
BRANCH   9  37
ATOM     37  C   UNL d   1      43.885  19.615  -2.667  0.00  0.00    -0.002 A 
ATOM     38  C   UNL d   1      43.295  20.404  -2.495  0.00  0.00     0.017 A 
ATOM     39  C   UNL d   1      43.563  21.309  -2.826  0.00  0.00     0.037 A 
ATOM     40  C   UNL d   1      44.420  21.424  -3.329  0.00  0.00     0.065 A 
ATOM     41  C   UNL d   1      45.009  20.634  -3.501  0.00  0.00     0.037 A 
ATOM     42  C   UNL d   1      44.740  19.729  -3.169  0.00  0.00     0.017 A 
BRANCH  40  43
ATOM     43  O   UNL d   1      44.688  22.328  -3.661  0.00  0.00    -0.361 OA
ATOM     44  H   UNL d   1      44.971  22.386  -4.210  0.00  0.00     0.217 HD
ENDBRANCH  40  43
ENDBRANCH   9  37
BRANCH   7  45
ATOM     45  O   UNL d   1      43.121  15.592  -0.465  0.00  0.00    -0.360 OA
ATOM     46  H   UNL d   1      43.729  15.607  -0.344  0.00  0.00     0.217 HD
ENDBRANCH   7  45
TORSDOF 9
ENDMDL
MODEL 3
REMARK VINA RESULT:   -10.080      1.410      3.950
REMARK INTER + INTRA:          -4.652
REMARK INTER:                 -13.251
REMARK INTRA:                   8.598
REMARK UNBOUND:                 8.964
REMARK  9 active torsions:
REMARK  status: ('A' for Active; 'I' for Inactive)
REMARK    1  A    between atoms: O_3  and  C_17 
REMARK    2  A    between atoms: O_4  and  C_18 
REMARK    3  A    between atoms: O_5  and  C_19 
REMARK    4  A    between atoms: O_7  and  C_32 
REMARK    5  A    between atoms: O_9  and  C_36 
REMARK    6  A    between atoms: O_10  and  C_40 
REMARK    7  A    between atoms: C_11  and  C_13 
REMARK    8  A    between atoms: C_15  and  C_20 
REMARK    9  A    between atoms: C_22  and  C_29 
ROOT
ATOM      1  O   UNL d   1      42.692  17.843  -4.408  0.00  0.00    -0.308 OA
ATOM      2  O   UNL d   1      42.111  16.378  -1.775  0.00  0.00    -0.287 OA
ATOM      3  C   UNL d   1      41.802  16.582  -5.257  0.00  0.00     0.045 A 
ATOM      4  C   UNL d   1      42.143  16.957  -4.394  0.00  0.00     0.107 A 
ATOM      5  C   UNL d   1      41.956  16.482  -3.534  0.00  0.00     0.082 A 
ATOM      6  C   UNL d   1      41.274  15.733  -5.259  0.00  0.00     0.082 A 
ATOM      7  C   UNL d   1      41.428  15.633  -3.536  0.00  0.00     0.085 A 
ATOM      8  C   UNL d   1      41.087  15.259  -4.399  0.00  0.00     0.075 A 
ATOM      9  C   UNL d   1      43.050  18.239  -3.514  0.00  0.00     0.090 A 
ATOM     10  C   UNL d   1      42.304  16.861  -2.629  0.00  0.00     0.190 A 
ATOM     11  C   UNL d   1      42.855  17.744  -2.618  0.00  0.00     0.094 A 
ENDROOT
BRANCH   3  12
ATOM     12  C   UNL d   1      41.990  17.057  -6.117  0.00  0.00     0.014 A 
ATOM     13  C   UNL d   1      42.792  16.810  -6.660  0.00  0.00     0.029 A 
ATOM     14  C   UNL d   1      42.979  17.284  -7.520  0.00  0.00    -0.001 A 
ATOM     15  C   UNL d   1      42.364  18.006  -7.837  0.00  0.00     0.017 A 
ATOM     16  C   UNL d   1      41.561  18.253  -7.294  0.00  0.00     0.038 A 
ATOM     17  C   UNL d   1      41.374  17.779  -6.434  0.00  0.00     0.076 A 
BRANCH  14  18
ATOM     18  C   UNL d   1      43.782  17.037  -8.063  0.00  0.00     0.090 A 
ATOM     19  O   UNL d   1      43.742  16.258  -8.688  0.00  0.00    -0.309 OA
ATOM     20  C   UNL d   1      44.544  16.011  -9.231  0.00  0.00     0.095 A 
ATOM     21  C   UNL d   1      45.387  16.543  -9.149  0.00  0.00     0.081 A 
ATOM     22  C   UNL d   1      44.487  15.197  -9.879  0.00  0.00     0.075 A 
ATOM     23  C   UNL d   1      45.427  17.322  -8.523  0.00  0.00     0.190 A 
ATOM     24  C   UNL d   1      46.231  16.298  -9.708  0.00  0.00     0.085 A 
ATOM     25  O   UNL d   1      46.270  17.854  -8.440  0.00  0.00    -0.287 OA
ATOM     26  C   UNL d   1      44.625  17.569  -7.980  0.00  0.00     0.094 A 
ATOM     27  C   UNL d   1      46.197  15.487 -10.362  0.00  0.00     0.074 A 
ATOM     28  C   UNL d   1      45.319  14.933 -10.448  0.00  0.00     0.071 A 
BRANCH  24  29
ATOM     29  O   UNL d   1      47.068  16.837  -9.617  0.00  0.00    -0.360 OA
ATOM     30  H   UNL d   1      47.124  17.377  -9.917  0.00  0.00     0.217 HD
ENDBRANCH  24  29
BRANCH  28  31
ATOM     31  O   UNL d   1      45.275  14.154 -11.073  0.00  0.00    -0.361 OA
ATOM     32  H   UNL d   1      45.222  13.578 -10.847  0.00  0.00     0.217 HD
ENDBRANCH  28  31
ENDBRANCH  14  18
BRANCH  17  33
ATOM     33  O   UNL d   1      40.572  18.026  -5.891  0.00  0.00    -0.360 OA
ATOM     34  H   UNL d   1      40.574  18.546  -5.553  0.00  0.00     0.217 HD
ENDBRANCH  17  33
ENDBRANCH   3  12
BRANCH   6  35
ATOM     35  O   UNL d   1      40.934  15.359  -6.121  0.00  0.00    -0.360 OA
ATOM     36  H   UNL d   1      40.380  15.079  -6.141  0.00  0.00     0.217 HD
ENDBRANCH   6  35
BRANCH   9  37
ATOM     37  C   UNL d   1      43.577  19.089  -3.516  0.00  0.00    -0.002 A 
ATOM     38  C   UNL d   1      43.168  19.930  -3.870  0.00  0.00     0.017 A 
ATOM     39  C   UNL d   1      43.695  20.779  -3.873  0.00  0.00     0.037 A 
ATOM     40  C   UNL d   1      44.631  20.788  -3.521  0.00  0.00     0.065 A 
ATOM     41  C   UNL d   1      45.040  19.947  -3.167  0.00  0.00     0.037 A 
ATOM     42  C   UNL d   1      44.513  19.097  -3.165  0.00  0.00     0.017 A 
BRANCH  40  43
ATOM     43  O   UNL d   1      45.159  21.638  -3.523  0.00  0.00    -0.361 OA
ATOM     44  H   UNL d   1      44.911  22.157  -3.291  0.00  0.00     0.217 HD
ENDBRANCH  40  43
ENDBRANCH   9  37
BRANCH   7  45
ATOM     45  O   UNL d   1      41.240  15.159  -2.676  0.00  0.00    -0.360 OA
ATOM     46  H   UNL d   1      41.138  15.484  -2.159  0.00  0.00     0.217 HD
ENDBRANCH   7  45
TORSDOF 9
ENDMDL
MODEL 4
REMARK VINA RESULT:    -9.954     39.861     43.010
REMARK INTER + INTRA:          -4.481
REMARK INTER:                 -13.078
REMARK INTRA:                   8.597
REMARK UNBOUND:                 8.964
REMARK  9 active torsions:
REMARK  status: ('A' for Active; 'I' for Inactive)
REMARK    1  A    between atoms: O_3  and  C_17 
REMARK    2  A    between atoms: O_4  and  C_18 
REMARK    3  A    between atoms: O_5  and  C_19 
REMARK    4  A    between atoms: O_7  and  C_32 
REMARK    5  A    between atoms: O_9  and  C_36 
REMARK    6  A    between atoms: O_10  and  C_40 
REMARK    7  A    between atoms: C_11  and  C_13 
REMARK    8  A    between atoms: C_15  and  C_20 
REMARK    9  A    between atoms: C_22  and  C_29 
ROOT
ATOM      1  O   UNL d   1      46.707 -24.403   2.990  0.00  0.00    -0.308 OA
ATOM      2  O   UNL d   1      47.895 -24.012   0.188  0.00  0.00    -0.287 OA
ATOM      3  C   UNL d   1      47.863 -25.705   3.253  0.00  0.00     0.045 A 
ATOM      4  C   UNL d   1      47.493 -24.997   2.651  0.00  0.00     0.107 A 
ATOM      5  C   UNL d   1      47.878 -24.866   1.737  0.00  0.00     0.082 A 
ATOM      6  C   UNL d   1      48.617 -26.282   2.941  0.00  0.00     0.082 A 
ATOM      7  C   UNL d   1      48.632 -25.444   1.425  0.00  0.00     0.085 A 
ATOM      8  C   UNL d   1      49.002 -26.152   2.027  0.00  0.00     0.075 A 
ATOM      9  C   UNL d   1      46.317 -23.664   2.369  0.00  0.00     0.090 A 
ATOM     10  C   UNL d   1      47.503 -24.133   1.100  0.00  0.00     0.190 A 
ATOM     11  C   UNL d   1      46.718 -23.528   1.417  0.00  0.00     0.094 A 
ENDROOT
BRANCH   3  12
ATOM     12  C   UNL d   1      47.479 -25.835   4.167  0.00  0.00     0.014 A 
ATOM     13  C   UNL d   1      47.863 -25.340   4.946  0.00  0.00     0.029 A 
ATOM     14  C   UNL d   1      47.478 -25.470   5.860  0.00  0.00    -0.001 A 
ATOM     15  C   UNL d   1      46.710 -26.095   5.995  0.00  0.00     0.017 A 
ATOM     16  C   UNL d   1      46.325 -26.590   5.215  0.00  0.00     0.038 A 
ATOM     17  C   UNL d   1      46.710 -26.460   4.301  0.00  0.00     0.076 A 
BRANCH  14  18
ATOM     18  C   UNL d   1      47.863 -24.976   6.639  0.00  0.00     0.090 A 
ATOM     19  O   UNL d   1      47.341 -24.241   7.072  0.00  0.00    -0.309 OA
ATOM     20  C   UNL d   1      47.725 -23.746   7.852  0.00  0.00     0.095 A 
ATOM     21  C   UNL d   1      48.632 -23.986   8.198  0.00  0.00     0.081 A 
ATOM     22  C   UNL d   1      47.169 -22.983   8.292  0.00  0.00     0.075 A 
ATOM     23  C   UNL d   1      49.154 -24.721   7.765  0.00  0.00     0.190 A 
ATOM     24  C   UNL d   1      49.045 -23.480   9.009  0.00  0.00     0.085 A 
ATOM     25  O   UNL d   1      50.061 -24.961   8.112  0.00  0.00    -0.287 OA
ATOM     26  C   UNL d   1      48.770 -25.216   6.986  0.00  0.00     0.094 A 
ATOM     27  C   UNL d   1      48.507 -22.713   9.465  0.00  0.00     0.074 A 
ATOM     28  C   UNL d   1      47.563 -22.463   9.104  0.00  0.00     0.071 A 
BRANCH  24  29
ATOM     29  O   UNL d   1      49.953 -23.728   9.348  0.00  0.00    -0.360 OA
ATOM     30  H   UNL d   1      50.171 -24.302   9.257  0.00  0.00     0.217 HD
ENDBRANCH  24  29
BRANCH  28  31
ATOM     31  O   UNL d   1      47.037 -21.728   9.534  0.00  0.00    -0.361 OA
ATOM     32  H   UNL d   1      46.712 -21.333   9.184  0.00  0.00     0.217 HD
ENDBRANCH  28  31
ENDBRANCH  14  18
BRANCH  17  33
ATOM     33  O   UNL d   1      46.325 -26.954   3.522  0.00  0.00    -0.360 OA
ATOM     34  H   UNL d   1      46.457 -26.773   2.944  0.00  0.00     0.217 HD
ENDBRANCH  17  33
ENDBRANCH   3  12
BRANCH   6  35
ATOM     35  O   UNL d   1      48.987 -26.990   3.543  0.00  0.00    -0.360 OA
ATOM     36  H   UNL d   1      49.563 -26.938   3.766  0.00  0.00     0.217 HD
ENDBRANCH   6  35
BRANCH   9  37
ATOM     37  C   UNL d   1      45.563 -23.088   2.685  0.00  0.00    -0.002 A 
ATOM     38  C   UNL d   1      45.616 -22.094   2.583  0.00  0.00     0.017 A 
ATOM     39  C   UNL d   1      44.862 -21.518   2.899  0.00  0.00     0.037 A 
ATOM     40  C   UNL d   1      44.055 -21.936   3.316  0.00  0.00     0.065 A 
ATOM     41  C   UNL d   1      44.002 -22.929   3.418  0.00  0.00     0.037 A 
ATOM     42  C   UNL d   1      44.756 -23.505   3.102  0.00  0.00     0.017 A 
BRANCH  40  43
ATOM     43  O   UNL d   1      43.301 -21.360   3.633  0.00  0.00    -0.361 OA
ATOM     44  H   UNL d   1      43.398 -20.937   4.076  0.00  0.00     0.217 HD
ENDBRANCH  40  43
ENDBRANCH   9  37
BRANCH   7  45
ATOM     45  O   UNL d   1      49.017 -25.314   0.511  0.00  0.00    -0.360 OA
ATOM     46  H   UNL d   1      48.851 -25.692   0.049  0.00  0.00     0.217 HD
ENDBRANCH   7  45
TORSDOF 9
ENDMDL
MODEL 5
REMARK VINA RESULT:    -9.925     40.538     43.463
REMARK INTER + INTRA:          -4.443
REMARK INTER:                 -12.962
REMARK INTRA:                   8.519
REMARK UNBOUND:                 8.964
REMARK  9 active torsions:
REMARK  status: ('A' for Active; 'I' for Inactive)
REMARK    1  A    between atoms: O_3  and  C_17 
REMARK    2  A    between atoms: O_4  and  C_18 
REMARK    3  A    between atoms: O_5  and  C_19 
REMARK    4  A    between atoms: O_7  and  C_32 
REMARK    5  A    between atoms: O_9  and  C_36 
REMARK    6  A    between atoms: O_10  and  C_40 
REMARK    7  A    between atoms: C_11  and  C_13 
REMARK    8  A    between atoms: C_15  and  C_20 
REMARK    9  A    between atoms: C_22  and  C_29 
ROOT
ATOM      1  O   UNL d   1      47.333 -25.586   2.376  0.00  0.00    -0.308 OA
ATOM      2  O   UNL d   1      48.519 -24.491  -0.234  0.00  0.00    -0.287 OA
ATOM      3  C   UNL d   1      46.314 -24.153   2.464  0.00  0.00     0.045 A 
ATOM      4  C   UNL d   1      47.016 -24.675   1.981  0.00  0.00     0.107 A 
ATOM      5  C   UNL d   1      47.405 -24.322   1.130  0.00  0.00     0.082 A 
ATOM      6  C   UNL d   1      46.000 -23.277   2.097  0.00  0.00     0.082 A 
ATOM      7  C   UNL d   1      47.092 -23.446   0.763  0.00  0.00     0.085 A 
ATOM      8  C   UNL d   1      46.389 -22.924   1.246  0.00  0.00     0.075 A 
ATOM      9  C   UNL d   1      48.064 -26.135   1.878  0.00  0.00     0.090 A 
ATOM     10  C   UNL d   1      48.137 -24.854   0.616  0.00  0.00     0.190 A 
ATOM     11  C   UNL d   1      48.469 -25.767   0.992  0.00  0.00     0.094 A 
ENDROOT
BRANCH   3  12
ATOM     12  C   UNL d   1      45.925 -24.506   3.315  0.00  0.00     0.014 A 
ATOM     13  C   UNL d   1      46.349 -24.278   4.192  0.00  0.00     0.029 A 
ATOM     14  C   UNL d   1      45.960 -24.631   5.042  0.00  0.00    -0.001 A 
ATOM     15  C   UNL d   1      45.147 -25.213   5.017  0.00  0.00     0.017 A 
ATOM     16  C   UNL d   1      44.723 -25.442   4.141  0.00  0.00     0.038 A 
ATOM     17  C   UNL d   1      45.112 -25.088   3.290  0.00  0.00     0.076 A 
BRANCH  14  18
ATOM     18  C   UNL d   1      46.384 -24.402   5.919  0.00  0.00     0.090 A 
ATOM     19  O   UNL d   1      47.306 -24.727   6.128  0.00  0.00    -0.309 OA
ATOM     20  C   UNL d   1      47.730 -24.499   7.004  0.00  0.00     0.095 A 
ATOM     21  C   UNL d   1      47.232 -23.945   7.672  0.00  0.00     0.081 A 
ATOM     22  C   UNL d   1      48.692 -24.845   7.208  0.00  0.00     0.075 A 
ATOM     23  C   UNL d   1      46.309 -23.620   7.462  0.00  0.00     0.190 A 
ATOM     24  C   UNL d   1      47.660 -23.699   8.589  0.00  0.00     0.085 A 
ATOM     25  O   UNL d   1      45.811 -23.067   8.129  0.00  0.00    -0.287 OA
ATOM     26  C   UNL d   1      45.885 -23.849   6.586  0.00  0.00     0.094 A 
ATOM     27  C   UNL d   1      48.621 -24.034   8.814  0.00  0.00     0.074 A 
ATOM     28  C   UNL d   1      49.140 -24.611   8.119  0.00  0.00     0.071 A 
BRANCH  24  29
ATOM     29  O   UNL d   1      47.153 -23.145   9.248  0.00  0.00    -0.360 OA
ATOM     30  H   UNL d   1      47.455 -22.747   9.617  0.00  0.00     0.217 HD
ENDBRANCH  24  29
BRANCH  28  31
ATOM     31  O   UNL d   1      50.062 -24.938   8.325  0.00  0.00    -0.361 OA
ATOM     32  H   UNL d   1      50.500 -24.537   8.504  0.00  0.00     0.217 HD
ENDBRANCH  28  31
ENDBRANCH  14  18
BRANCH  17  33
ATOM     33  O   UNL d   1      44.688 -25.317   2.413  0.00  0.00    -0.360 OA
ATOM     34  H   UNL d   1      44.540 -25.905   2.285  0.00  0.00     0.217 HD
ENDBRANCH  17  33
ENDBRANCH   3  12
BRANCH   6  35
ATOM     35  O   UNL d   1      45.298 -22.755   2.581  0.00  0.00    -0.360 OA
ATOM     36  H   UNL d   1      45.200 -22.160   2.437  0.00  0.00     0.217 HD
ENDBRANCH   6  35
BRANCH   9  37
ATOM     37  C   UNL d   1      48.375 -27.011   2.249  0.00  0.00    -0.002 A 
ATOM     38  C   UNL d   1      49.207 -27.051   2.803  0.00  0.00     0.017 A 
ATOM     39  C   UNL d   1      49.519 -27.926   3.174  0.00  0.00     0.037 A 
ATOM     40  C   UNL d   1      48.998 -28.760   2.991  0.00  0.00     0.065 A 
ATOM     41  C   UNL d   1      48.166 -28.719   2.438  0.00  0.00     0.037 A 
ATOM     42  C   UNL d   1      47.855 -27.844   2.067  0.00  0.00     0.017 A 
BRANCH  40  43
ATOM     43  O   UNL d   1      49.309 -29.635   3.362  0.00  0.00    -0.361 OA
ATOM     44  H   UNL d   1      49.814 -29.658   3.722  0.00  0.00     0.217 HD
ENDBRANCH  40  43
ENDBRANCH   9  37
BRANCH   7  45
ATOM     45  O   UNL d   1      47.480 -23.093  -0.088  0.00  0.00    -0.360 OA
ATOM     46  H   UNL d   1      47.136 -22.737  -0.462  0.00  0.00     0.217 HD
ENDBRANCH   7  45
TORSDOF 9
ENDMDL
