MODEL 1
REMARK VINA RESULT:     0.000      0.000      0.000
REMARK INTER + INTRA:           0.000
REMARK INTER:                   0.000
REMARK INTRA:                   0.000
REMARK UNBOUND:                 0.000
REMARK  1 active torsions:
REMARK  status: ('A' for Active; 'I' for Inactive)
REMARK    1  A    between atoms: C_5  and  O_1 
ROOT
ATOM      1  C   UNL d   1     -29.886 -19.988 -10.220  0.00  0.00    -0.011 A 
ATOM      2  C   UNL d   1     -31.047 -19.947 -11.855  0.00  0.00    -0.034 A 
ATOM      3  C   UNL d   1     -30.780 -19.890 -10.658  0.00  0.00    -0.004 A 
ATOM      4  C   UNL d   1     -28.560 -20.239 -10.865  0.00  0.00     0.127 A 
ATOM      5  C   UNL d   1     -30.399 -19.799  -8.836  0.00  0.00     0.013 A 
ATOM      6  C   UNL d   1     -29.049 -20.237 -11.737  0.00  0.00     0.038 A 
ATOM      7  C   UNL d   1     -31.292 -19.700  -9.273  0.00  0.00     0.006 A 
ATOM      8  C   UNL d   1     -28.992 -20.087  -9.783  0.00  0.00     0.018 C 
ATOM      9  C   UNL d   1     -31.864 -19.870 -12.428  0.00  0.00     0.016 C 
ATOM     10  C   UNL d   1     -30.769 -20.066 -12.809  0.00  0.00     0.016 C 
ENDROOT
BRANCH   4  11
ATOM     11  O   UNL d   1     -27.606 -20.360 -10.589  0.00  0.00    -0.395 OA
ATOM     12  H   UNL d   1     -27.187 -19.925 -10.724  0.00  0.00     0.210 HD
ENDBRANCH   4  11
TORSDOF 1
ENDMDL
MODEL 2
REMARK VINA RESULT:     0.000     70.761     71.891
REMARK INTER + INTRA:           0.000
REMARK INTER:                   0.000
REMARK INTRA:                   0.000
REMARK UNBOUND:                 0.000
REMARK  1 active torsions:
REMARK  status: ('A' for Active; 'I' for Inactive)
REMARK    1  A    between atoms: C_5  and  O_1 
ROOT
ATOM      1  C   UNL d   1     -11.768  35.679  30.470  0.00  0.00    -0.011 A 
ATOM      2  C   UNL d   1     -10.661  34.329  31.456  0.00  0.00    -0.034 A 
ATOM      3  C   UNL d   1     -11.134  34.906  30.481  0.00  0.00    -0.004 A 
ATOM      4  C   UNL d   1     -12.365  36.406  31.632  0.00  0.00     0.127 A 
ATOM      5  C   UNL d   1     -11.838  35.767  28.985  0.00  0.00     0.013 A 
ATOM      6  C   UNL d   1     -11.851  35.779  32.215  0.00  0.00     0.038 A 
ATOM      7  C   UNL d   1     -11.204  34.994  28.997  0.00  0.00     0.006 A 
ATOM      8  C   UNL d   1     -12.402  36.453  30.458  0.00  0.00     0.018 C 
ATOM      9  C   UNL d   1     -10.035  33.566  31.624  0.00  0.00     0.016 C 
ATOM     10  C   UNL d   1     -10.569  34.216  32.446  0.00  0.00     0.016 C 
ENDROOT
BRANCH   4  11
ATOM     11  O   UNL d   1     -12.992  37.170  31.794  0.00  0.00    -0.395 OA
ATOM     12  H   UNL d   1     -13.168  37.531  31.323  0.00  0.00     0.210 HD
ENDBRANCH   4  11
TORSDOF 1
ENDMDL
MODEL 3
REMARK VINA RESULT:     0.000     71.762     72.944
REMARK INTER + INTRA:           0.000
REMARK INTER:                   0.000
REMARK INTRA:                   0.000
REMARK UNBOUND:                 0.000
REMARK  1 active torsions:
REMARK  status: ('A' for Active; 'I' for Inactive)
REMARK    1  A    between atoms: C_5  and  O_1 
ROOT
ATOM      1  C   UNL d   1     -47.555  39.666  26.235  0.00  0.00    -0.011 A 
ATOM      2  C   UNL d   1     -46.374  40.897  27.291  0.00  0.00    -0.034 A 
ATOM      3  C   UNL d   1     -46.871  39.828  26.946  0.00  0.00    -0.004 A 
ATOM      4  C   UNL d   1     -48.216  40.664  25.340  0.00  0.00     0.127 A 
ATOM      5  C   UNL d   1     -47.610  38.192  26.441  0.00  0.00     0.013 A 
ATOM      6  C   UNL d   1     -47.669  41.358  25.806  0.00  0.00     0.038 A 
ATOM      7  C   UNL d   1     -46.925  38.354  27.152  0.00  0.00     0.006 A 
ATOM      8  C   UNL d   1     -48.239  39.504  25.524  0.00  0.00     0.018 C 
ATOM      9  C   UNL d   1     -45.702  41.210  27.962  0.00  0.00     0.016 C 
ATOM     10  C   UNL d   1     -46.290  41.890  27.203  0.00  0.00     0.016 C 
ENDROOT
BRANCH   4  11
ATOM     11  O   UNL d   1     -48.895  40.675  24.604  0.00  0.00    -0.395 OA
ATOM     12  H   UNL d   1     -49.471  40.871  24.717  0.00  0.00     0.210 HD
ENDBRANCH   4  11
TORSDOF 1
ENDMDL
MODEL 4
REMARK VINA RESULT:     0.000     73.563     73.613
REMARK INTER + INTRA:           0.000
REMARK INTER:                   0.000
REMARK INTRA:                   0.000
REMARK UNBOUND:                 0.000
REMARK  1 active torsions:
REMARK  status: ('A' for Active; 'I' for Inactive)
REMARK    1  A    between atoms: C_5  and  O_1 
ROOT
ATOM      1  C   UNL d   1     -11.153  40.469  26.587  0.00  0.00    -0.011 A 
ATOM      2  C   UNL d   1     -12.881  41.381  26.136  0.00  0.00    -0.034 A 
ATOM      3  C   UNL d   1     -12.107  40.690  26.791  0.00  0.00    -0.004 A 
ATOM      4  C   UNL d   1     -10.332  40.901  25.414  0.00  0.00     0.127 A 
ATOM      5  C   UNL d   1     -10.949  39.636  27.804  0.00  0.00     0.013 A 
ATOM      6  C   UNL d   1     -11.143  41.392  25.101  0.00  0.00     0.038 A 
ATOM      7  C   UNL d   1     -11.903  39.857  28.008  0.00  0.00     0.006 A 
ATOM      8  C   UNL d   1     -10.199  40.248  26.383  0.00  0.00     0.018 C 
ATOM      9  C   UNL d   1     -13.832  41.684  26.207  0.00  0.00     0.016 C 
ATOM     10  C   UNL d   1     -13.084  41.952  25.340  0.00  0.00     0.016 C 
ENDROOT
BRANCH   4  11
ATOM     11  O   UNL d   1      -9.401  40.777  25.067  0.00  0.00    -0.395 OA
ATOM     12  H   UNL d   1      -9.260  40.954  24.491  0.00  0.00     0.210 HD
ENDBRANCH   4  11
TORSDOF 1
ENDMDL
MODEL 5
REMARK VINA RESULT:     0.000     71.431     71.478
REMARK INTER + INTRA:           0.000
REMARK INTER:                   0.000
REMARK INTRA:                   0.000
REMARK UNBOUND:                 0.000
REMARK  1 active torsions:
REMARK  status: ('A' for Active; 'I' for Inactive)
REMARK    1  A    between atoms: C_5  and  O_1 
ROOT
ATOM      1  C   UNL d   1     -11.597  38.116  26.415  0.00  0.00    -0.011 A 
ATOM      2  C   UNL d   1     -13.326  39.028  25.964  0.00  0.00    -0.034 A 
ATOM      3  C   UNL d   1     -12.551  38.337  26.619  0.00  0.00    -0.004 A 
ATOM      4  C   UNL d   1     -10.776  38.548  25.242  0.00  0.00     0.127 A 
ATOM      5  C   UNL d   1     -11.393  37.283  27.632  0.00  0.00     0.013 A 
ATOM      6  C   UNL d   1     -11.588  39.039  24.928  0.00  0.00     0.038 A 
ATOM      7  C   UNL d   1     -12.347  37.504  27.836  0.00  0.00     0.006 A 
ATOM      8  C   UNL d   1     -10.643  37.895  26.210  0.00  0.00     0.018 C 
ATOM      9  C   UNL d   1     -14.277  39.331  26.035  0.00  0.00     0.016 C 
ATOM     10  C   UNL d   1     -13.528  39.599  25.167  0.00  0.00     0.016 C 
ENDROOT
BRANCH   4  11
ATOM     11  O   UNL d   1      -9.846  38.424  24.895  0.00  0.00    -0.395 OA
ATOM     12  H   UNL d   1      -9.704  38.601  24.318  0.00  0.00     0.210 HD
ENDBRANCH   4  11
TORSDOF 1
ENDMDL
