MODEL 1
REMARK VINA RESULT:    -0.004      0.000      0.000
REMARK INTER + INTRA:           0.865
REMARK INTER:                   0.000
REMARK INTRA:                   0.865
REMARK UNBOUND:                 0.871
REMARK  8 active torsions:
REMARK  status: ('A' for Active; 'I' for Inactive)
REMARK    1  A    between atoms: O_1  and  C_8 
REMARK    2  A    between atoms: O_1  and  C_13 
REMARK    3  A    between atoms: C_3  and  C_4 
REMARK    4  A    between atoms: C_3  and  C_5 
REMARK    5  A    between atoms: C_4  and  C_6 
REMARK    6  A    between atoms: C_5  and  C_8 
REMARK    7  A    between atoms: C_6  and  C_9 
REMARK    8  A    between atoms: C_9  and  C_10 
ROOT
ATOM      1  C   UNL d   1      34.555  14.681 -33.237  0.00  0.00    -0.016 C 
ATOM      2  C   UNL d   1      34.004  15.246 -33.851  0.00  0.00     0.010 C 
ENDROOT
BRANCH   1   3
ATOM      3  C   UNL d   1      34.353  14.663 -32.258  0.00  0.00     0.008 C 
BRANCH   3   4
ATOM      4  C   UNL d   1      33.444  14.392 -31.940  0.00  0.00     0.027 C 
BRANCH   4   5
ATOM      5  C   UNL d   1      33.271  14.275 -30.962  0.00  0.00    -0.025 C 
BRANCH   5   6
ATOM      6  C   UNL d   1      32.359  14.016 -30.643  0.00  0.00    -0.091 C 
ATOM      7  C   UNL d   1      31.708  14.721 -30.361  0.00  0.00     0.042 C 
ATOM      8  C   UNL d   1      32.098  13.051 -30.607  0.00  0.00     0.042 C 
ENDBRANCH   5   6
ENDBRANCH   4   5
ENDBRANCH   3   4
ENDBRANCH   1   3
BRANCH   1   9
ATOM      9  C   UNL d   1      35.308  14.135 -33.602  0.00  0.00     0.031 C 
BRANCH   9  10
ATOM     10  C   UNL d   1      36.042  14.577 -34.118  0.00  0.00     0.179 C 
BRANCH  10  11
ATOM     11  O   UNL d   1      36.858  14.057 -34.371  0.00  0.00    -0.322 OA
BRANCH  11  12
ATOM     12  C   UNL d   1      37.582  14.493 -34.906  0.00  0.00     0.254 C 
ATOM     13  O   UNL d   1      37.448  14.665 -35.882  0.00  0.00    -0.266 OA
ATOM     14  C   UNL d   1      38.440  14.756 -34.465  0.00  0.00     0.126 C 
ENDBRANCH  11  12
ENDBRANCH  10  11
ENDBRANCH   9  10
ENDBRANCH   1   9
TORSDOF 8
ENDMDL
MODEL 2
REMARK VINA RESULT:    -0.004     30.189     31.611
REMARK INTER + INTRA:           0.865
REMARK INTER:                   0.000
REMARK INTRA:                   0.865
REMARK UNBOUND:                 0.871
REMARK  8 active torsions:
REMARK  status: ('A' for Active; 'I' for Inactive)
REMARK    1  A    between atoms: O_1  and  C_8 
REMARK    2  A    between atoms: O_1  and  C_13 
REMARK    3  A    between atoms: C_3  and  C_4 
REMARK    4  A    between atoms: C_3  and  C_5 
REMARK    5  A    between atoms: C_4  and  C_6 
REMARK    6  A    between atoms: C_5  and  C_8 
REMARK    7  A    between atoms: C_6  and  C_9 
REMARK    8  A    between atoms: C_9  and  C_10 
ROOT
ATOM      1  C   UNL d   1       5.516  14.805 -22.990  0.00  0.00    -0.016 C 
ATOM      2  C   UNL d   1       6.357  14.629 -23.501  0.00  0.00     0.010 C 
ENDROOT
BRANCH   1   3
ATOM      3  C   UNL d   1       5.076  14.064 -22.481  0.00  0.00     0.008 C 
BRANCH   3   4
ATOM      4  C   UNL d   1       4.795  13.230 -22.956  0.00  0.00     0.027 C 
BRANCH   4   5
ATOM      5  C   UNL d   1       4.265  12.534 -22.471  0.00  0.00    -0.025 C 
BRANCH   5   6
ATOM      6  C   UNL d   1       3.995  11.694 -22.942  0.00  0.00    -0.091 C 
ATOM      7  C   UNL d   1       4.562  10.874 -22.868  0.00  0.00     0.042 C 
ATOM      8  C   UNL d   1       3.156  11.674 -23.487  0.00  0.00     0.042 C 
ENDBRANCH   5   6
ENDBRANCH   4   5
ENDBRANCH   3   4
ENDBRANCH   1   3
BRANCH   1   9
ATOM      9  C   UNL d   1       5.114  15.721 -22.987  0.00  0.00     0.031 C 
BRANCH   9  10
ATOM     10  C   UNL d   1       5.656  16.503 -22.681  0.00  0.00     0.179 C 
BRANCH  10  11
ATOM     11  O   UNL d   1       5.221  17.394 -22.554  0.00  0.00    -0.322 OA
BRANCH  11  12
ATOM     12  C   UNL d   1       5.767  18.181 -22.268  0.00  0.00     0.254 C 
ATOM     13  O   UNL d   1       6.379  18.628 -22.920  0.00  0.00    -0.266 OA
ATOM     14  C   UNL d   1       5.701  18.522 -21.330  0.00  0.00     0.126 C 
ENDBRANCH  11  12
ENDBRANCH  10  11
ENDBRANCH   9  10
ENDBRANCH   1   9
TORSDOF 8
ENDMDL
MODEL 3
REMARK VINA RESULT:    -0.003     55.414     58.371
REMARK INTER + INTRA:           0.866
REMARK INTER:                   0.000
REMARK INTRA:                   0.866
REMARK UNBOUND:                 0.871
REMARK  8 active torsions:
REMARK  status: ('A' for Active; 'I' for Inactive)
REMARK    1  A    between atoms: O_1  and  C_8 
REMARK    2  A    between atoms: O_1  and  C_13 
REMARK    3  A    between atoms: C_3  and  C_4 
REMARK    4  A    between atoms: C_3  and  C_5 
REMARK    5  A    between atoms: C_4  and  C_6 
REMARK    6  A    between atoms: C_5  and  C_8 
REMARK    7  A    between atoms: C_6  and  C_9 
REMARK    8  A    between atoms: C_9  and  C_10 
ROOT
ATOM      1  C   UNL d   1       7.357  12.471  18.391  0.00  0.00    -0.016 C 
ATOM      2  C   UNL d   1       7.320  11.506  18.652  0.00  0.00     0.010 C 
ENDROOT
BRANCH   1   3
ATOM      3  C   UNL d   1       8.236  12.900  18.185  0.00  0.00     0.008 C 
BRANCH   3   4
ATOM      4  C   UNL d   1       8.819  12.524  17.465  0.00  0.00     0.027 C 
BRANCH   4   5
ATOM      5  C   UNL d   1       9.649  13.009  17.188  0.00  0.00    -0.025 C 
BRANCH   5   6
ATOM      6  C   UNL d   1      10.238  12.628  16.476  0.00  0.00    -0.091 C 
ATOM      7  C   UNL d   1      11.023  12.062  16.728  0.00  0.00     0.042 C 
ATOM      8  C   UNL d   1      10.042  12.811  15.513  0.00  0.00     0.042 C 
ENDBRANCH   5   6
ENDBRANCH   4   5
ENDBRANCH   3   4
ENDBRANCH   1   3
BRANCH   1   9
ATOM      9  C   UNL d   1       6.514  13.006  18.336  0.00  0.00     0.031 C 
BRANCH   9  10
ATOM     10  C   UNL d   1       5.914  13.077  19.132  0.00  0.00     0.179 C 
BRANCH  10  11
ATOM     11  O   UNL d   1       5.142  13.713  19.122  0.00  0.00    -0.322 OA
BRANCH  11  12
ATOM     12  C   UNL d   1       4.530  13.769  19.911  0.00  0.00     0.254 C 
ATOM     13  O   UNL d   1       3.866  13.041  20.081  0.00  0.00    -0.266 OA
ATOM     14  C   UNL d   1       4.581  14.553  20.529  0.00  0.00     0.126 C 
ENDBRANCH  11  12
ENDBRANCH  10  11
ENDBRANCH   9  10
ENDBRANCH   1   9
TORSDOF 8
ENDMDL
MODEL 4
REMARK VINA RESULT:    -0.003     87.866     89.989
REMARK INTER + INTRA:           0.866
REMARK INTER:                   0.000
REMARK INTRA:                   0.866
REMARK UNBOUND:                 0.871
REMARK  8 active torsions:
REMARK  status: ('A' for Active; 'I' for Inactive)
REMARK    1  A    between atoms: O_1  and  C_8 
REMARK    2  A    between atoms: O_1  and  C_13 
REMARK    3  A    between atoms: C_3  and  C_4 
REMARK    4  A    between atoms: C_3  and  C_5 
REMARK    5  A    between atoms: C_4  and  C_6 
REMARK    6  A    between atoms: C_5  and  C_8 
REMARK    7  A    between atoms: C_6  and  C_9 
REMARK    8  A    between atoms: C_9  and  C_10 
ROOT
ATOM      1  C   UNL d   1     -32.985 -43.077 -44.166  0.00  0.00    -0.016 C 
ATOM      2  C   UNL d   1     -33.178 -42.169 -43.794  0.00  0.00     0.010 C 
ENDROOT
BRANCH   1   3
ATOM      3  C   UNL d   1     -32.160 -43.230 -44.709  0.00  0.00     0.008 C 
BRANCH   3   4
ATOM      4  C   UNL d   1     -31.996 -42.688 -45.534  0.00  0.00     0.027 C 
BRANCH   4   5
ATOM      5  C   UNL d   1     -31.225 -42.909 -46.131  0.00  0.00    -0.025 C 
BRANCH   5   6
ATOM      6  C   UNL d   1     -31.055 -42.360 -46.950  0.00  0.00    -0.091 C 
ATOM      7  C   UNL d   1     -30.410 -41.596 -46.915  0.00  0.00     0.042 C 
ATOM      8  C   UNL d   1     -31.529 -42.575 -47.804  0.00  0.00     0.042 C 
ENDBRANCH   5   6
ENDBRANCH   4   5
ENDBRANCH   3   4
ENDBRANCH   1   3
BRANCH   1   9
ATOM      9  C   UNL d   1     -33.619 -43.831 -43.995  0.00  0.00     0.031 C 
BRANCH   9  10
ATOM     10  C   UNL d   1     -33.850 -44.087 -43.056  0.00  0.00     0.179 C 
BRANCH  10  11
ATOM     11  O   UNL d   1     -34.377 -44.919 -42.880  0.00  0.00    -0.322 OA
BRANCH  11  12
ATOM     12  C   UNL d   1     -34.627 -45.163 -41.943  0.00  0.00     0.254 C 
ATOM     13  O   UNL d   1     -35.352 -44.661 -41.472  0.00  0.00    -0.266 OA
ATOM     14  C   UNL d   1     -34.152 -45.909 -41.477  0.00  0.00     0.126 C 
ENDBRANCH  11  12
ENDBRANCH  10  11
ENDBRANCH   9  10
ENDBRANCH   1   9
TORSDOF 8
ENDMDL
MODEL 5
REMARK VINA RESULT:    -0.002     76.097     79.173
REMARK INTER + INTRA:           0.867
REMARK INTER:                   0.000
REMARK INTRA:                   0.867
REMARK UNBOUND:                 0.871
REMARK  8 active torsions:
REMARK  status: ('A' for Active; 'I' for Inactive)
REMARK    1  A    between atoms: O_1  and  C_8 
REMARK    2  A    between atoms: O_1  and  C_13 
REMARK    3  A    between atoms: C_3  and  C_4 
REMARK    4  A    between atoms: C_3  and  C_5 
REMARK    5  A    between atoms: C_4  and  C_6 
REMARK    6  A    between atoms: C_5  and  C_8 
REMARK    7  A    between atoms: C_6  and  C_9 
REMARK    8  A    between atoms: C_9  and  C_10 
ROOT
ATOM      1  C   UNL d   1     -25.586  22.735  17.582  0.00  0.00    -0.016 C 
ATOM      2  C   UNL d   1     -25.842  23.630  17.217  0.00  0.00     0.010 C 
ENDROOT
BRANCH   1   3
ATOM      3  C   UNL d   1     -26.276  22.017  17.676  0.00  0.00     0.008 C 
BRANCH   3   4
ATOM      4  C   UNL d   1     -27.094  22.179  18.228  0.00  0.00     0.027 C 
BRANCH   4   5
ATOM      5  C   UNL d   1     -27.733  21.431  18.406  0.00  0.00    -0.025 C 
BRANCH   5   6
ATOM      6  C   UNL d   1     -28.557  21.596  18.947  0.00  0.00    -0.091 C 
ATOM      7  C   UNL d   1     -29.420  21.815  18.491  0.00  0.00     0.042 C 
ATOM      8  C   UNL d   1     -28.519  21.543  19.945  0.00  0.00     0.042 C 
ENDBRANCH   5   6
ENDBRANCH   4   5
ENDBRANCH   3   4
ENDBRANCH   1   3
BRANCH   1   9
ATOM      9  C   UNL d   1     -24.640  22.557  17.852  0.00  0.00     0.031 C 
BRANCH   9  10
ATOM     10  C   UNL d   1     -23.899  22.681  17.192  0.00  0.00     0.179 C 
BRANCH  10  11
ATOM     11  O   UNL d   1     -22.972  22.382  17.418  0.00  0.00    -0.322 OA
BRANCH  11  12
ATOM     12  C   UNL d   1     -22.227  22.526  16.767  0.00  0.00     0.254 C 
ATOM     13  O   UNL d   1     -21.849  23.442  16.634  0.00  0.00    -0.266 OA
ATOM     14  C   UNL d   1     -21.861  21.753  16.248  0.00  0.00     0.126 C 
ENDBRANCH  11  12
ENDBRANCH  10  11
ENDBRANCH   9  10
ENDBRANCH   1   9
TORSDOF 8
ENDMDL
