MODEL 1
REMARK VINA RESULT:     0.000      0.000      0.000
REMARK INTER + INTRA:           0.000
REMARK INTER:                   0.000
REMARK INTRA:                   0.000
REMARK UNBOUND:                 0.000
REMARK  1 active torsions:
REMARK  status: ('A' for Active; 'I' for Inactive)
REMARK    1  A    between atoms: O_1  and  C_5 
ROOT
ATOM      1  C   UNL d   1     -26.623 -15.480 -13.443  0.00  0.00    -0.013 A 
ATOM      2  C   UNL d   1     -25.155 -14.034 -13.611  0.00  0.00    -0.003 A 
ATOM      3  C   UNL d   1     -25.811 -14.219 -14.342  0.00  0.00     0.021 A 
ATOM      4  C   UNL d   1     -26.917 -15.224 -14.364  0.00  0.00     0.065 A 
ATOM      5  C   UNL d   1     -25.067 -14.580 -12.514  0.00  0.00     0.013 A 
ATOM      6  C   UNL d   1     -24.611 -13.003 -14.536  0.00  0.00     0.006 A 
ATOM      7  C   UNL d   1     -25.267 -13.188 -15.268  0.00  0.00     0.008 A 
ATOM      8  C   UNL d   1     -26.446 -15.842 -12.528  0.00  0.00     0.018 C 
ATOM      9  C   UNL d   1     -27.292 -16.201 -13.260  0.00  0.00     0.018 C 
ATOM     10  C   UNL d   1     -27.322 -15.078 -15.267  0.00  0.00     0.047 C 
ENDROOT
BRANCH   4  11
ATOM     11  O   UNL d   1     -27.679 -15.864 -14.469  0.00  0.00    -0.389 OA
ATOM     12  H   UNL d   1     -27.808 -16.269 -14.017  0.00  0.00     0.210 HD
ENDBRANCH   4  11
TORSDOF 1
ENDMDL
MODEL 2
REMARK VINA RESULT:     0.000     26.863     28.165
REMARK INTER + INTRA:           0.000
REMARK INTER:                   0.000
REMARK INTRA:                   0.000
REMARK UNBOUND:                 0.000
REMARK  1 active torsions:
REMARK  status: ('A' for Active; 'I' for Inactive)
REMARK    1  A    between atoms: O_1  and  C_5 
ROOT
ATOM      1  C   UNL d   1     -10.852   0.331   2.646  0.00  0.00    -0.013 A 
ATOM      2  C   UNL d   1      -9.284   0.836   3.896  0.00  0.00    -0.003 A 
ATOM      3  C   UNL d   1      -9.730   1.503   3.299  0.00  0.00     0.021 A 
ATOM      4  C   UNL d   1     -10.864   1.286   2.350  0.00  0.00     0.065 A 
ATOM      5  C   UNL d   1      -9.540  -0.358   4.024  0.00  0.00     0.013 A 
ATOM      6  C   UNL d   1      -8.430   1.979   4.319  0.00  0.00     0.006 A 
ATOM      7  C   UNL d   1      -8.875   2.646   3.721  0.00  0.00     0.008 A 
ATOM      8  C   UNL d   1     -10.959  -0.644   2.841  0.00  0.00     0.018 C 
ATOM      9  C   UNL d   1     -11.600  -0.017   2.080  0.00  0.00     0.018 C 
ATOM     10  C   UNL d   1     -10.995   2.198   1.960  0.00  0.00     0.047 C 
ENDROOT
BRANCH   4  11
ATOM     11  O   UNL d   1     -11.616   1.237   1.692  0.00  0.00    -0.389 OA
ATOM     12  H   UNL d   1     -11.822   0.686   1.497  0.00  0.00     0.210 HD
ENDBRANCH   4  11
TORSDOF 1
ENDMDL
MODEL 3
REMARK VINA RESULT:     0.000     71.003     71.494
REMARK INTER + INTRA:           0.000
REMARK INTER:                   0.000
REMARK INTRA:                   0.000
REMARK UNBOUND:                 0.000
REMARK  1 active torsions:
REMARK  status: ('A' for Active; 'I' for Inactive)
REMARK    1  A    between atoms: O_1  and  C_5 
ROOT
ATOM      1  C   UNL d   1     -47.555  39.666  26.235  0.00  0.00    -0.013 A 
ATOM      2  C   UNL d   1     -48.797  41.280  26.588  0.00  0.00    -0.003 A 
ATOM      3  C   UNL d   1     -48.787  40.793  25.714  0.00  0.00     0.021 A 
ATOM      4  C   UNL d   1     -47.951  39.619  25.318  0.00  0.00     0.065 A 
ATOM      5  C   UNL d   1     -48.124  41.056  27.590  0.00  0.00     0.013 A 
ATOM      6  C   UNL d   1     -49.842  42.130  25.953  0.00  0.00     0.006 A 
ATOM      7  C   UNL d   1     -49.832  41.642  25.080  0.00  0.00     0.008 A 
ATOM      8  C   UNL d   1     -47.072  39.589  27.107  0.00  0.00     0.018 C 
ATOM      9  C   UNL d   1     -46.916  38.899  26.168  0.00  0.00     0.018 C 
ATOM     10  C   UNL d   1     -48.251  39.450  24.378  0.00  0.00     0.047 C 
ENDROOT
BRANCH   4  11
ATOM     11  O   UNL d   1     -47.437  38.838  24.964  0.00  0.00    -0.389 OA
ATOM     12  H   UNL d   1     -47.710  38.283  24.916  0.00  0.00     0.210 HD
ENDBRANCH   4  11
TORSDOF 1
ENDMDL
MODEL 4
REMARK VINA RESULT:     0.000     78.685     79.943
REMARK INTER + INTRA:           0.000
REMARK INTER:                   0.000
REMARK INTRA:                   0.000
REMARK UNBOUND:                 0.000
REMARK  1 active torsions:
REMARK  status: ('A' for Active; 'I' for Inactive)
REMARK    1  A    between atoms: O_1  and  C_5 
ROOT
ATOM      1  C   UNL d   1      15.057  39.666  26.235  0.00  0.00    -0.013 A 
ATOM      2  C   UNL d   1      15.940  39.483  28.095  0.00  0.00    -0.003 A 
ATOM      3  C   UNL d   1      16.474  39.541  27.251  0.00  0.00     0.021 A 
ATOM      4  C   UNL d   1      15.979  39.674  25.848  0.00  0.00     0.065 A 
ATOM      5  C   UNL d   1      14.719  39.505  28.223  0.00  0.00     0.013 A 
ATOM      6  C   UNL d   1      17.263  39.390  28.772  0.00  0.00     0.006 A 
ATOM      7  C   UNL d   1      17.797  39.447  27.929  0.00  0.00     0.008 A 
ATOM      8  C   UNL d   1      14.086  39.672  26.472  0.00  0.00     0.018 C 
ATOM      9  C   UNL d   1      14.531  39.752  25.388  0.00  0.00     0.018 C 
ATOM     10  C   UNL d   1      16.829  39.695  25.321  0.00  0.00     0.047 C 
ENDROOT
BRANCH   4  11
ATOM     11  O   UNL d   1      15.742  39.763  24.880  0.00  0.00    -0.389 OA
ATOM     12  H   UNL d   1      15.810  40.308  24.593  0.00  0.00     0.210 HD
ENDBRANCH   4  11
TORSDOF 1
ENDMDL
MODEL 5
REMARK VINA RESULT:     0.000     79.329     79.878
REMARK INTER + INTRA:           0.000
REMARK INTER:                   0.000
REMARK INTRA:                   0.000
REMARK UNBOUND:                 0.000
REMARK  1 active torsions:
REMARK  status: ('A' for Active; 'I' for Inactive)
REMARK    1  A    between atoms: O_1  and  C_5 
ROOT
ATOM      1  C   UNL d   1      12.997  39.009  29.600  0.00  0.00    -0.013 A 
ATOM      2  C   UNL d   1      14.974  38.464  29.336  0.00  0.00    -0.003 A 
ATOM      3  C   UNL d   1      14.571  39.257  28.878  0.00  0.00     0.021 A 
ATOM      4  C   UNL d   1      13.170  39.768  28.972  0.00  0.00     0.065 A 
ATOM      5  C   UNL d   1      14.434  37.678  30.109  0.00  0.00     0.013 A 
ATOM      6  C   UNL d   1      16.222  38.850  28.621  0.00  0.00     0.006 A 
ATOM      7  C   UNL d   1      15.819  39.643  28.164  0.00  0.00     0.008 A 
ATOM      8  C   UNL d   1      12.678  38.307  30.236  0.00  0.00     0.018 C 
ATOM      9  C   UNL d   1      12.032  39.185  29.797  0.00  0.00     0.018 C 
ATOM     10  C   UNL d   1      13.191  40.564  28.368  0.00  0.00     0.047 C 
ENDROOT
BRANCH   4  11
ATOM     11  O   UNL d   1      12.259  40.182  28.972  0.00  0.00    -0.389 OA
ATOM     12  H   UNL d   1      11.839  40.006  29.393  0.00  0.00     0.210 HD
ENDBRANCH   4  11
TORSDOF 1
ENDMDL
