MODEL 1
REMARK VINA RESULT:     0.000      0.000      0.000
REMARK INTER + INTRA:           0.805
REMARK INTER:                   0.000
REMARK INTRA:                   0.805
REMARK UNBOUND:                 0.805
REMARK  3 active torsions:
REMARK  status: ('A' for Active; 'I' for Inactive)
REMARK    1  A    between atoms: C_2  and  C_7 
REMARK    2  A    between atoms: C_7  and  C_9 
REMARK    3  A    between atoms: C_9  and  C_10 
ROOT
ATOM      1  C   UNL d   1     -15.555 -23.528  -4.602  0.00  0.00    -0.036 A 
ATOM      2  C   UNL d   1     -15.014 -24.337  -4.370  0.00  0.00     0.011 A 
ATOM      3  C   UNL d   1     -16.316 -23.604  -5.246  0.00  0.00     0.011 A 
ATOM      4  C   UNL d   1     -15.234 -25.221  -4.782  0.00  0.00     0.001 A 
ATOM      5  C   UNL d   1     -16.536 -24.488  -5.658  0.00  0.00     0.001 A 
ATOM      6  C   UNL d   1     -15.995 -25.296  -5.426  0.00  0.00     0.000 A 
ENDROOT
BRANCH   1   7
ATOM      7  C   UNL d   1     -15.335 -22.644  -4.189  0.00  0.00     0.014 C 
BRANCH   7   8
ATOM      8  C   UNL d   1     -14.687 -22.030  -4.640  0.00  0.00     0.042 C 
BRANCH   8   9
ATOM      9  C   UNL d   1     -14.467 -21.146  -4.227  0.00  0.00     0.258 C 
ATOM     10  O   UNL d   1     -13.818 -20.532  -4.677  0.00  0.00    -0.302 OA
ENDBRANCH   8   9
ENDBRANCH   7   8
ENDBRANCH   1   7
TORSDOF 3
ENDMDL
MODEL 2
REMARK VINA RESULT:     0.000     12.670     13.582
REMARK INTER + INTRA:           0.805
REMARK INTER:                   0.000
REMARK INTRA:                   0.805
REMARK UNBOUND:                 0.805
REMARK  3 active torsions:
REMARK  status: ('A' for Active; 'I' for Inactive)
REMARK    1  A    between atoms: C_2  and  C_7 
REMARK    2  A    between atoms: C_7  and  C_9 
REMARK    3  A    between atoms: C_9  and  C_10 
ROOT
ATOM      1  C   UNL d   1     -13.026 -13.466 -13.785  0.00  0.00    -0.036 A 
ATOM      2  C   UNL d   1     -13.649 -14.243 -13.703  0.00  0.00     0.011 A 
ATOM      3  C   UNL d   1     -13.238 -12.603 -13.326  0.00  0.00     0.011 A 
ATOM      4  C   UNL d   1     -14.485 -14.158 -13.160  0.00  0.00     0.001 A 
ATOM      5  C   UNL d   1     -14.074 -12.519 -12.783  0.00  0.00     0.001 A 
ATOM      6  C   UNL d   1     -14.698 -13.296 -12.701  0.00  0.00     0.000 A 
ENDROOT
BRANCH   1   7
ATOM      7  C   UNL d   1     -12.190 -13.551 -14.328  0.00  0.00     0.014 C 
BRANCH   7   8
ATOM      8  C   UNL d   1     -11.343 -13.862 -13.896  0.00  0.00     0.042 C 
BRANCH   8   9
ATOM      9  C   UNL d   1     -10.508 -13.947 -14.438  0.00  0.00     0.258 C 
ATOM     10  O   UNL d   1      -9.661 -14.257 -14.007  0.00  0.00    -0.302 OA
ENDBRANCH   8   9
ENDBRANCH   7   8
ENDBRANCH   1   7
TORSDOF 3
ENDMDL
MODEL 3
REMARK VINA RESULT:     0.000     35.176     36.690
REMARK INTER + INTRA:           0.805
REMARK INTER:                   0.000
REMARK INTRA:                   0.805
REMARK UNBOUND:                 0.805
REMARK  3 active torsions:
REMARK  status: ('A' for Active; 'I' for Inactive)
REMARK    1  A    between atoms: C_2  and  C_7 
REMARK    2  A    between atoms: C_7  and  C_9 
REMARK    3  A    between atoms: C_9  and  C_10 
ROOT
ATOM      1  C   UNL d   1     -20.023  10.287   9.662  0.00  0.00    -0.036 A 
ATOM      2  C   UNL d   1     -19.922  10.706  10.564  0.00  0.00     0.011 A 
ATOM      3  C   UNL d   1     -19.294  10.378   8.984  0.00  0.00     0.011 A 
ATOM      4  C   UNL d   1     -19.092  11.216  10.788  0.00  0.00     0.001 A 
ATOM      5  C   UNL d   1     -18.464  10.888   9.208  0.00  0.00     0.001 A 
ATOM      6  C   UNL d   1     -18.362  11.307  10.110  0.00  0.00     0.000 A 
ENDROOT
BRANCH   1   7
ATOM      7  C   UNL d   1     -20.854   9.777   9.437  0.00  0.00     0.014 C 
BRANCH   7   8
ATOM      8  C   UNL d   1     -20.903   8.795   9.621  0.00  0.00     0.042 C 
BRANCH   8   9
ATOM      9  C   UNL d   1     -21.733   8.285   9.397  0.00  0.00     0.258 C 
ATOM     10  O   UNL d   1     -21.782   7.303   9.580  0.00  0.00    -0.302 OA
ENDBRANCH   8   9
ENDBRANCH   7   8
ENDBRANCH   1   7
TORSDOF 3
ENDMDL
MODEL 4
REMARK VINA RESULT:     0.000     32.699     33.894
REMARK INTER + INTRA:           0.805
REMARK INTER:                   0.000
REMARK INTRA:                   0.805
REMARK UNBOUND:                 0.805
REMARK  3 active torsions:
REMARK  status: ('A' for Active; 'I' for Inactive)
REMARK    1  A    between atoms: C_2  and  C_7 
REMARK    2  A    between atoms: C_7  and  C_9 
REMARK    3  A    between atoms: C_9  and  C_10 
ROOT
ATOM      1  C   UNL d   1     -17.902   4.932  13.291  0.00  0.00    -0.036 A 
ATOM      2  C   UNL d   1     -17.602   4.895  14.244  0.00  0.00     0.011 A 
ATOM      3  C   UNL d   1     -18.294   4.120  12.858  0.00  0.00     0.011 A 
ATOM      4  C   UNL d   1     -17.694   4.046  14.764  0.00  0.00     0.001 A 
ATOM      5  C   UNL d   1     -18.387   3.272  13.379  0.00  0.00     0.001 A 
ATOM      6  C   UNL d   1     -18.087   3.235  14.332  0.00  0.00     0.000 A 
ENDROOT
BRANCH   1   7
ATOM      7  C   UNL d   1     -17.809   5.781  12.770  0.00  0.00     0.014 C 
BRANCH   7   8
ATOM      8  C   UNL d   1     -18.553   6.450  12.768  0.00  0.00     0.042 C 
BRANCH   8   9
ATOM      9  C   UNL d   1     -18.460   7.298  12.247  0.00  0.00     0.258 C 
ATOM     10  O   UNL d   1     -19.204   7.968  12.246  0.00  0.00    -0.302 OA
ENDBRANCH   8   9
ENDBRANCH   7   8
ENDBRANCH   1   7
TORSDOF 3
ENDMDL
MODEL 5
REMARK VINA RESULT:     0.000     37.861     38.927
REMARK INTER + INTRA:           0.805
REMARK INTER:                   0.000
REMARK INTRA:                   0.805
REMARK UNBOUND:                 0.805
REMARK  3 active torsions:
REMARK  status: ('A' for Active; 'I' for Inactive)
REMARK    1  A    between atoms: C_2  and  C_7 
REMARK    2  A    between atoms: C_7  and  C_9 
REMARK    3  A    between atoms: C_9  and  C_10 
ROOT
ATOM      1  C   UNL d   1     -39.861   6.832  -5.289  0.00  0.00    -0.036 A 
ATOM      2  C   UNL d   1     -39.125   6.632  -5.935  0.00  0.00     0.011 A 
ATOM      3  C   UNL d   1     -40.340   6.084  -4.829  0.00  0.00     0.011 A 
ATOM      4  C   UNL d   1     -38.866   5.684  -6.121  0.00  0.00     0.001 A 
ATOM      5  C   UNL d   1     -40.081   5.136  -5.015  0.00  0.00     0.001 A 
ATOM      6  C   UNL d   1     -39.345   4.936  -5.661  0.00  0.00     0.000 A 
ENDROOT
BRANCH   1   7
ATOM      7  C   UNL d   1     -40.120   7.780  -5.102  0.00  0.00     0.014 C 
BRANCH   7   8
ATOM      8  C   UNL d   1     -39.673   8.283  -4.363  0.00  0.00     0.042 C 
BRANCH   8   9
ATOM      9  C   UNL d   1     -39.932   9.231  -4.177  0.00  0.00     0.258 C 
ATOM     10  O   UNL d   1     -39.486   9.735  -3.436  0.00  0.00    -0.302 OA
ENDBRANCH   8   9
ENDBRANCH   7   8
ENDBRANCH   1   7
TORSDOF 3
ENDMDL
