MODEL 1
REMARK VINA RESULT:     0.000      0.000      0.000
REMARK INTER + INTRA:           0.784
REMARK INTER:                   0.000
REMARK INTRA:                   0.784
REMARK UNBOUND:                 0.784
REMARK  2 active torsions:
REMARK  status: ('A' for Active; 'I' for Inactive)
REMARK    1  A    between atoms: O_1  and  C_9 
REMARK    2  A    between atoms: C_2  and  C_3 
ROOT
ATOM      1  C   UNL d   1       9.203  34.817  44.503  0.00  0.00    -0.052 A 
ATOM      2  C   UNL d   1       9.901  34.278  44.974  0.00  0.00     0.044 A 
ATOM      3  C   UNL d   1       9.123  34.772  43.507  0.00  0.00     0.008 A 
ATOM      4  C   UNL d   1      10.439  33.647  43.453  0.00  0.00    -0.029 A 
ATOM      5  C   UNL d   1      10.519  33.692  44.449  0.00  0.00     0.072 A 
ATOM      6  C   UNL d   1       9.741  34.186  42.982  0.00  0.00     0.010 A 
ATOM      7  C   UNL d   1      11.057  33.061  42.928  0.00  0.00     0.051 C 
ENDROOT
BRANCH   1   8
ATOM      8  C   UNL d   1       8.585  35.403  45.028  0.00  0.00     0.010 C 
ATOM      9  C   UNL d   1       7.717  35.038  45.365  0.00  0.00     0.015 C 
ATOM     10  C   UNL d   1       8.835  36.352  45.215  0.00  0.00     0.015 C 
ENDBRANCH   1   8
BRANCH   5  11
ATOM     11  O   UNL d   1      11.217  33.153  44.920  0.00  0.00    -0.360 OA
ATOM     12  H   UNL d   1      11.342  32.576  44.730  0.00  0.00     0.217 HD
ENDBRANCH   5  11
TORSDOF 2
ENDMDL
MODEL 2
REMARK VINA RESULT:     0.000     16.384     17.115
REMARK INTER + INTRA:           0.784
REMARK INTER:                   0.000
REMARK INTRA:                   0.784
REMARK UNBOUND:                 0.784
REMARK  2 active torsions:
REMARK  status: ('A' for Active; 'I' for Inactive)
REMARK    1  A    between atoms: O_1  and  C_9 
REMARK    2  A    between atoms: C_2  and  C_3 
ROOT
ATOM      1  C   UNL d   1      -3.294  30.830  33.081  0.00  0.00    -0.052 A 
ATOM      2  C   UNL d   1      -2.572  31.392  33.483  0.00  0.00     0.044 A 
ATOM      3  C   UNL d   1      -3.785  30.167  33.646  0.00  0.00     0.008 A 
ATOM      4  C   UNL d   1      -2.830  30.627  35.015  0.00  0.00    -0.029 A 
ATOM      5  C   UNL d   1      -2.340  31.291  34.450  0.00  0.00     0.072 A 
ATOM      6  C   UNL d   1      -3.553  30.065  34.613  0.00  0.00     0.010 A 
ATOM      7  C   UNL d   1      -2.598  30.526  35.983  0.00  0.00     0.051 C 
ENDROOT
BRANCH   1   8
ATOM      8  C   UNL d   1      -3.527  30.932  32.113  0.00  0.00     0.010 C 
ATOM      9  C   UNL d   1      -4.227  31.588  31.834  0.00  0.00     0.015 C 
ATOM     10  C   UNL d   1      -3.058  30.377  31.426  0.00  0.00     0.015 C 
ENDBRANCH   1   8
BRANCH   5  11
ATOM     11  O   UNL d   1      -1.617  31.853  34.853  0.00  0.00    -0.360 OA
ATOM     12  H   UNL d   1      -1.100  31.586  35.068  0.00  0.00     0.217 HD
ENDBRANCH   5  11
TORSDOF 2
ENDMDL
MODEL 3
REMARK VINA RESULT:     0.000     16.752     17.375
REMARK INTER + INTRA:           0.784
REMARK INTER:                   0.000
REMARK INTRA:                   0.784
REMARK UNBOUND:                 0.784
REMARK  2 active torsions:
REMARK  status: ('A' for Active; 'I' for Inactive)
REMARK    1  A    between atoms: O_1  and  C_9 
REMARK    2  A    between atoms: C_2  and  C_3 
ROOT
ATOM      1  C   UNL d   1      -4.567  31.581  34.517  0.00  0.00    -0.052 A 
ATOM      2  C   UNL d   1      -4.976  31.382  35.407  0.00  0.00     0.044 A 
ATOM      3  C   UNL d   1      -3.870  30.972  34.139  0.00  0.00     0.008 A 
ATOM      4  C   UNL d   1      -3.992  29.963  35.542  0.00  0.00    -0.029 A 
ATOM      5  C   UNL d   1      -4.689  30.573  35.920  0.00  0.00     0.072 A 
ATOM      6  C   UNL d   1      -3.582  30.163  34.652  0.00  0.00     0.010 A 
ATOM      7  C   UNL d   1      -3.704  29.154  36.055  0.00  0.00     0.051 C 
ENDROOT
BRANCH   1   8
ATOM      8  C   UNL d   1      -4.855  32.390  34.004  0.00  0.00     0.010 C 
ATOM      9  C   UNL d   1      -5.616  32.329  33.359  0.00  0.00     0.015 C 
ATOM     10  C   UNL d   1      -4.381  33.261  34.137  0.00  0.00     0.015 C 
ENDBRANCH   1   8
BRANCH   5  11
ATOM     11  O   UNL d   1      -5.098  30.373  36.810  0.00  0.00    -0.360 OA
ATOM     12  H   UNL d   1      -4.748  30.383  37.321  0.00  0.00     0.217 HD
ENDBRANCH   5  11
TORSDOF 2
ENDMDL
MODEL 4
REMARK VINA RESULT:     0.000      3.012      3.608
REMARK INTER + INTRA:           0.784
REMARK INTER:                   0.000
REMARK INTRA:                   0.784
REMARK UNBOUND:                 0.784
REMARK  2 active torsions:
REMARK  status: ('A' for Active; 'I' for Inactive)
REMARK    1  A    between atoms: O_1  and  C_9 
REMARK    2  A    between atoms: C_2  and  C_3 
ROOT
ATOM      1  C   UNL d   1       7.870  34.715  41.918  0.00  0.00    -0.052 A 
ATOM      2  C   UNL d   1       7.877  35.140  41.012  0.00  0.00     0.044 A 
ATOM      3  C   UNL d   1       8.589  34.069  42.172  0.00  0.00     0.008 A 
ATOM      4  C   UNL d   1       9.323  34.272  40.616  0.00  0.00    -0.029 A 
ATOM      5  C   UNL d   1       8.604  34.918  40.362  0.00  0.00     0.072 A 
ATOM      6  C   UNL d   1       9.315  33.847  41.522  0.00  0.00     0.010 A 
ATOM      7  C   UNL d   1      10.049  34.050  39.966  0.00  0.00     0.051 C 
ENDROOT
BRANCH   1   8
ATOM      8  C   UNL d   1       7.144  34.937  42.568  0.00  0.00     0.010 C 
ATOM      9  C   UNL d   1       6.303  34.396  42.583  0.00  0.00     0.015 C 
ATOM     10  C   UNL d   1       7.258  35.701  43.204  0.00  0.00     0.015 C 
ENDBRANCH   1   8
BRANCH   5  11
ATOM     11  O   UNL d   1       8.611  35.343  39.457  0.00  0.00    -0.360 OA
ATOM     12  H   UNL d   1       8.090  35.369  39.122  0.00  0.00     0.217 HD
ENDBRANCH   5  11
TORSDOF 2
ENDMDL
MODEL 5
REMARK VINA RESULT:     0.000      1.596      2.256
REMARK INTER + INTRA:           0.784
REMARK INTER:                   0.000
REMARK INTRA:                   0.784
REMARK UNBOUND:                 0.784
REMARK  2 active torsions:
REMARK  status: ('A' for Active; 'I' for Inactive)
REMARK    1  A    between atoms: O_1  and  C_9 
REMARK    2  A    between atoms: C_2  and  C_3 
ROOT
ATOM      1  C   UNL d   1       9.984  33.660  46.006  0.00  0.00    -0.052 A 
ATOM      2  C   UNL d   1      10.192  34.325  45.289  0.00  0.00     0.044 A 
ATOM      3  C   UNL d   1      10.134  32.685  45.842  0.00  0.00     0.008 A 
ATOM      4  C   UNL d   1      10.701  33.040  44.245  0.00  0.00    -0.029 A 
ATOM      5  C   UNL d   1      10.551  34.015  44.408  0.00  0.00     0.072 A 
ATOM      6  C   UNL d   1      10.493  32.375  44.962  0.00  0.00     0.010 A 
ATOM      7  C   UNL d   1      11.060  32.730  43.364  0.00  0.00     0.051 C 
ENDROOT
BRANCH   1   8
ATOM      8  C   UNL d   1       9.625  33.969  46.886  0.00  0.00     0.010 C 
ATOM      9  C   UNL d   1      10.254  34.198  47.630  0.00  0.00     0.015 C 
ATOM     10  C   UNL d   1       8.638  34.051  47.023  0.00  0.00     0.015 C 
ENDBRANCH   1   8
BRANCH   5  11
ATOM     11  O   UNL d   1      10.760  34.680  43.691  0.00  0.00    -0.360 OA
ATOM     12  H   UNL d   1      10.299  34.963  43.388  0.00  0.00     0.217 HD
ENDBRANCH   5  11
TORSDOF 2
ENDMDL
