MODEL 1
REMARK VINA RESULT:    -9.968      0.000      0.000
REMARK INTER + INTRA:          -4.813
REMARK INTER:                 -13.693
REMARK INTRA:                   8.880
REMARK UNBOUND:                 8.651
REMARK  9 active torsions:
REMARK  status: ('A' for Active; 'I' for Inactive)
REMARK    1  A    between atoms: O_3  and  C_17 
REMARK    2  A    between atoms: O_4  and  C_18 
REMARK    3  A    between atoms: O_5  and  C_19 
REMARK    4  A    between atoms: O_7  and  C_32 
REMARK    5  A    between atoms: O_9  and  C_36 
REMARK    6  A    between atoms: O_10  and  C_40 
REMARK    7  A    between atoms: C_11  and  C_13 
REMARK    8  A    between atoms: C_15  and  C_20 
REMARK    9  A    between atoms: C_22  and  C_29 
ROOT
ATOM      1  O   UNL d   1      23.430  16.777  36.548  0.00  0.00    -0.308 OA
ATOM      2  O   UNL d   1      22.885  18.734  38.849  0.00  0.00    -0.287 OA
ATOM      3  C   UNL d   1      24.106  18.116  35.626  0.00  0.00     0.045 A 
ATOM      4  C   UNL d   1      23.681  17.785  36.468  0.00  0.00     0.107 A 
ATOM      5  C   UNL d   1      23.502  18.420  37.220  0.00  0.00     0.082 A 
ATOM      6  C   UNL d   1      24.352  19.081  35.535  0.00  0.00     0.082 A 
ATOM      7  C   UNL d   1      23.748  19.385  37.130  0.00  0.00     0.085 A 
ATOM      8  C   UNL d   1      24.173  19.715  36.287  0.00  0.00     0.075 A 
ATOM      9  C   UNL d   1      22.986  16.426  37.422  0.00  0.00     0.090 A 
ATOM     10  C   UNL d   1      23.059  18.090  38.103  0.00  0.00     0.190 A 
ATOM     11  C   UNL d   1      22.800  17.087  38.206  0.00  0.00     0.094 A 
ENDROOT
BRANCH   3  12
ATOM     12  C   UNL d   1      24.285  17.481  34.874  0.00  0.00     0.014 A 
ATOM     13  C   UNL d   1      23.617  17.378  34.137  0.00  0.00     0.029 A 
ATOM     14  C   UNL d   1      23.796  16.743  33.385  0.00  0.00    -0.001 A 
ATOM     15  C   UNL d   1      24.643  16.212  33.370  0.00  0.00     0.017 A 
ATOM     16  C   UNL d   1      25.311  16.315  34.107  0.00  0.00     0.038 A 
ATOM     17  C   UNL d   1      25.132  16.950  34.859  0.00  0.00     0.076 A 
BRANCH  14  18
ATOM     18  C   UNL d   1      23.128  16.640  32.649  0.00  0.00     0.090 A 
ATOM     19  O   UNL d   1      23.438  16.491  31.710  0.00  0.00    -0.309 OA
ATOM     20  C   UNL d   1      22.770  16.388  30.973  0.00  0.00     0.095 A 
ATOM     21  C   UNL d   1      21.792  16.433  31.175  0.00  0.00     0.081 A 
ATOM     22  C   UNL d   1      23.108  16.233  29.999  0.00  0.00     0.075 A 
ATOM     23  C   UNL d   1      21.481  16.582  32.114  0.00  0.00     0.190 A 
ATOM     24  C   UNL d   1      21.084  16.327  30.418  0.00  0.00     0.085 A 
ATOM     25  O   UNL d   1      20.503  16.627  32.316  0.00  0.00    -0.287 OA
ATOM     26  C   UNL d   1      22.150  16.685  32.851  0.00  0.00     0.094 A 
ATOM     27  C   UNL d   1      21.399  16.172  29.437  0.00  0.00     0.074 A 
ATOM     28  C   UNL d   1      22.418  16.125  29.226  0.00  0.00     0.071 A 
BRANCH  24  29
ATOM     29  O   UNL d   1      20.108  16.374  30.631  0.00  0.00    -0.360 OA
ATOM     30  H   UNL d   1      19.855  16.911  30.812  0.00  0.00     0.217 HD
ENDBRANCH  24  29
BRANCH  28  31
ATOM     31  O   UNL d   1      22.732  15.976  28.288  0.00  0.00    -0.361 OA
ATOM     32  H   UNL d   1      22.630  15.432  28.010  0.00  0.00     0.217 HD
ENDBRANCH  28  31
ENDBRANCH  14  18
BRANCH  17  33
ATOM     33  O   UNL d   1      25.800  17.053  35.596  0.00  0.00    -0.360 OA
ATOM     34  H   UNL d   1      25.976  17.619  35.778  0.00  0.00     0.217 HD
ENDBRANCH  17  33
ENDBRANCH   3  12
BRANCH   6  35
ATOM     35  O   UNL d   1      24.778  19.411  34.693  0.00  0.00    -0.360 OA
ATOM     36  H   UNL d   1      25.023  19.008  34.290  0.00  0.00     0.217 HD
ENDBRANCH   6  35
BRANCH   9  37
ATOM     37  C   UNL d   1      22.741  15.460  37.509  0.00  0.00    -0.002 A 
ATOM     38  C   UNL d   1      23.458  14.771  37.615  0.00  0.00     0.017 A 
ATOM     39  C   UNL d   1      23.214  13.805  37.701  0.00  0.00     0.037 A 
ATOM     40  C   UNL d   1      22.253  13.529  37.682  0.00  0.00     0.065 A 
ATOM     41  C   UNL d   1      21.536  14.218  37.576  0.00  0.00     0.037 A 
ATOM     42  C   UNL d   1      21.781  15.184  37.490  0.00  0.00     0.017 A 
BRANCH  40  43
ATOM     43  O   UNL d   1      22.008  12.563  37.769  0.00  0.00    -0.361 OA
ATOM     44  H   UNL d   1      21.764  12.351  38.299  0.00  0.00     0.217 HD
ENDBRANCH  40  43
ENDBRANCH   9  37
BRANCH   7  45
ATOM     45  O   UNL d   1      23.569  20.019  37.881  0.00  0.00    -0.360 OA
ATOM     46  H   UNL d   1      23.013  20.027  38.155  0.00  0.00     0.217 HD
ENDBRANCH   7  45
TORSDOF 9
ENDMDL
MODEL 2
REMARK VINA RESULT:    -9.930     19.641     22.147
REMARK INTER + INTRA:          -4.762
REMARK INTER:                 -13.539
REMARK INTRA:                   8.777
REMARK UNBOUND:                 8.651
REMARK  9 active torsions:
REMARK  status: ('A' for Active; 'I' for Inactive)
REMARK    1  A    between atoms: O_3  and  C_17 
REMARK    2  A    between atoms: O_4  and  C_18 
REMARK    3  A    between atoms: O_5  and  C_19 
REMARK    4  A    between atoms: O_7  and  C_32 
REMARK    5  A    between atoms: O_9  and  C_36 
REMARK    6  A    between atoms: O_10  and  C_40 
REMARK    7  A    between atoms: C_11  and  C_13 
REMARK    8  A    between atoms: C_15  and  C_20 
REMARK    9  A    between atoms: C_22  and  C_29 
ROOT
ATOM      1  O   UNL d   1      14.920  31.445  23.685  0.00  0.00    -0.308 OA
ATOM      2  O   UNL d   1      14.586  30.877  26.682  0.00  0.00    -0.287 OA
ATOM      3  C   UNL d   1      15.400  33.089  24.093  0.00  0.00     0.045 A 
ATOM      4  C   UNL d   1      15.107  32.183  24.397  0.00  0.00     0.107 A 
ATOM      5  C   UNL d   1      14.997  31.994  25.373  0.00  0.00     0.082 A 
ATOM      6  C   UNL d   1      15.584  33.807  24.765  0.00  0.00     0.082 A 
ATOM      7  C   UNL d   1      15.181  32.711  26.045  0.00  0.00     0.085 A 
ATOM      8  C   UNL d   1      15.474  33.618  25.740  0.00  0.00     0.075 A 
ATOM      9  C   UNL d   1      14.614  30.499  23.994  0.00  0.00     0.090 A 
ATOM     10  C   UNL d   1      14.693  31.055  25.704  0.00  0.00     0.190 A 
ATOM     11  C   UNL d   1      14.500  30.302  25.011  0.00  0.00     0.094 A 
ENDROOT
BRANCH   3  12
ATOM     12  C   UNL d   1      15.510  33.278  23.117  0.00  0.00     0.014 A 
ATOM     13  C   UNL d   1      14.729  33.592  22.577  0.00  0.00     0.029 A 
ATOM     14  C   UNL d   1      14.839  33.780  21.601  0.00  0.00    -0.001 A 
ATOM     15  C   UNL d   1      15.730  33.655  21.165  0.00  0.00     0.017 A 
ATOM     16  C   UNL d   1      16.511  33.341  21.705  0.00  0.00     0.038 A 
ATOM     17  C   UNL d   1      16.401  33.153  22.681  0.00  0.00     0.076 A 
BRANCH  14  18
ATOM     18  C   UNL d   1      14.058  34.094  21.062  0.00  0.00     0.090 A 
ATOM     19  O   UNL d   1      13.936  35.070  20.879  0.00  0.00    -0.309 OA
ATOM     20  C   UNL d   1      13.154  35.384  20.340  0.00  0.00     0.095 A 
ATOM     21  C   UNL d   1      12.495  34.722  19.983  0.00  0.00     0.081 A 
ATOM     22  C   UNL d   1      13.040  36.403  20.158  0.00  0.00     0.075 A 
ATOM     23  C   UNL d   1      12.617  33.746  20.165  0.00  0.00     0.190 A 
ATOM     24  C   UNL d   1      11.676  35.034  19.419  0.00  0.00     0.085 A 
ATOM     25  O   UNL d   1      11.958  33.084  19.808  0.00  0.00    -0.287 OA
ATOM     26  C   UNL d   1      13.398  33.432  20.705  0.00  0.00     0.094 A 
ATOM     27  C   UNL d   1      11.543  36.049  19.225  0.00  0.00     0.074 A 
ATOM     28  C   UNL d   1      12.229  36.738  19.597  0.00  0.00     0.071 A 
BRANCH  24  29
ATOM     29  O   UNL d   1      11.023  34.363  19.067  0.00  0.00    -0.360 OA
ATOM     30  H   UNL d   1      10.937  34.307  18.455  0.00  0.00     0.217 HD
ENDBRANCH  24  29
BRANCH  28  31
ATOM     31  O   UNL d   1      12.110  37.715  19.416  0.00  0.00    -0.361 OA
ATOM     32  H   UNL d   1      12.236  37.943  18.853  0.00  0.00     0.217 HD
ENDBRANCH  28  31
ENDBRANCH  14  18
BRANCH  17  33
ATOM     33  O   UNL d   1      17.182  32.839  23.220  0.00  0.00    -0.360 OA
ATOM     34  H   UNL d   1      17.239  32.238  23.364  0.00  0.00     0.217 HD
ENDBRANCH  17  33
ENDBRANCH   3  12
BRANCH   6  35
ATOM     35  O   UNL d   1      15.877  34.713  24.461  0.00  0.00    -0.360 OA
ATOM     36  H   UNL d   1      16.477  34.868  24.481  0.00  0.00     0.217 HD
ENDBRANCH   6  35
BRANCH   9  37
ATOM     37  C   UNL d   1      14.432  29.784  23.319  0.00  0.00    -0.002 A 
ATOM     38  C   UNL d   1      14.436  30.005  22.343  0.00  0.00     0.017 A 
ATOM     39  C   UNL d   1      14.253  29.291  21.668  0.00  0.00     0.037 A 
ATOM     40  C   UNL d   1      14.067  28.356  21.968  0.00  0.00     0.065 A 
ATOM     41  C   UNL d   1      14.063  28.134  22.943  0.00  0.00     0.037 A 
ATOM     42  C   UNL d   1      14.246  28.849  23.618  0.00  0.00     0.017 A 
BRANCH  40  43
ATOM     43  O   UNL d   1      13.885  27.641  21.292  0.00  0.00    -0.361 OA
ATOM     44  H   UNL d   1      14.061  27.056  21.404  0.00  0.00     0.217 HD
ENDBRANCH  40  43
ENDBRANCH   9  37
BRANCH   7  45
ATOM     45  O   UNL d   1      15.071  32.523  27.020  0.00  0.00    -0.360 OA
ATOM     46  H   UNL d   1      15.366  32.042  27.278  0.00  0.00     0.217 HD
ENDBRANCH   7  45
TORSDOF 9
ENDMDL
MODEL 3
REMARK VINA RESULT:    -9.694     16.586     19.031
REMARK INTER + INTRA:          -4.443
REMARK INTER:                 -13.210
REMARK INTRA:                   8.766
REMARK UNBOUND:                 8.651
REMARK  9 active torsions:
REMARK  status: ('A' for Active; 'I' for Inactive)
REMARK    1  A    between atoms: O_3  and  C_17 
REMARK    2  A    between atoms: O_4  and  C_18 
REMARK    3  A    between atoms: O_5  and  C_19 
REMARK    4  A    between atoms: O_7  and  C_32 
REMARK    5  A    between atoms: O_9  and  C_36 
REMARK    6  A    between atoms: O_10  and  C_40 
REMARK    7  A    between atoms: C_11  and  C_13 
REMARK    8  A    between atoms: C_15  and  C_20 
REMARK    9  A    between atoms: C_22  and  C_29 
ROOT
ATOM      1  O   UNL d   1      16.979  31.115  25.328  0.00  0.00    -0.308 OA
ATOM      2  O   UNL d   1      14.052  31.252  26.240  0.00  0.00    -0.287 OA
ATOM      3  C   UNL d   1      16.924  32.850  25.031  0.00  0.00     0.045 A 
ATOM      4  C   UNL d   1      16.458  32.017  25.331  0.00  0.00     0.107 A 
ATOM      5  C   UNL d   1      15.504  32.058  25.629  0.00  0.00     0.082 A 
ATOM      6  C   UNL d   1      16.436  33.723  25.028  0.00  0.00     0.082 A 
ATOM      7  C   UNL d   1      15.016  32.931  25.626  0.00  0.00     0.085 A 
ATOM      8  C   UNL d   1      15.483  33.763  25.326  0.00  0.00     0.075 A 
ATOM      9  C   UNL d   1      16.500  30.244  25.639  0.00  0.00     0.090 A 
ATOM     10  C   UNL d   1      15.006  31.200  25.944  0.00  0.00     0.190 A 
ATOM     11  C   UNL d   1      15.507  30.287  25.950  0.00  0.00     0.094 A 
ENDROOT
BRANCH   3  12
ATOM     12  C   UNL d   1      17.878  32.809  24.733  0.00  0.00     0.014 A 
ATOM     13  C   UNL d   1      18.615  32.949  25.395  0.00  0.00     0.029 A 
ATOM     14  C   UNL d   1      19.568  32.908  25.097  0.00  0.00    -0.001 A 
ATOM     15  C   UNL d   1      19.785  32.727  24.138  0.00  0.00     0.017 A 
ATOM     16  C   UNL d   1      19.049  32.587  23.476  0.00  0.00     0.038 A 
ATOM     17  C   UNL d   1      18.095  32.628  23.774  0.00  0.00     0.076 A 
BRANCH  14  18
ATOM     18  C   UNL d   1      20.305  33.048  25.758  0.00  0.00     0.090 A 
ATOM     19  O   UNL d   1      20.286  33.841  26.367  0.00  0.00    -0.309 OA
ATOM     20  C   UNL d   1      21.023  33.981  27.029  0.00  0.00     0.095 A 
ATOM     21  C   UNL d   1      21.778  33.328  27.081  0.00  0.00     0.081 A 
ATOM     22  C   UNL d   1      20.989  34.812  27.657  0.00  0.00     0.075 A 
ATOM     23  C   UNL d   1      21.797  32.535  26.472  0.00  0.00     0.190 A 
ATOM     24  C   UNL d   1      22.553  33.461  27.765  0.00  0.00     0.085 A 
ATOM     25  O   UNL d   1      22.553  31.883  26.525  0.00  0.00    -0.287 OA
ATOM     26  C   UNL d   1      21.061  32.395  25.811  0.00  0.00     0.094 A 
ATOM     27  C   UNL d   1      22.540  34.285  28.403  0.00  0.00     0.074 A 
ATOM     28  C   UNL d   1      21.753  34.965  28.349  0.00  0.00     0.071 A 
BRANCH  24  29
ATOM     29  O   UNL d   1      23.304  32.802  27.809  0.00  0.00    -0.360 OA
ATOM     30  H   UNL d   1      23.890  32.994  27.742  0.00  0.00     0.217 HD
ENDBRANCH  24  29
BRANCH  28  31
ATOM     31  O   UNL d   1      21.730  35.759  28.956  0.00  0.00    -0.361 OA
ATOM     32  H   UNL d   1      22.261  36.013  29.154  0.00  0.00     0.217 HD
ENDBRANCH  28  31
ENDBRANCH  14  18
BRANCH  17  33
ATOM     33  O   UNL d   1      17.358  32.488  23.112  0.00  0.00    -0.360 OA
ATOM     34  H   UNL d   1      17.491  32.308  22.534  0.00  0.00     0.217 HD
ENDBRANCH  17  33
ENDBRANCH   3  12
BRANCH   6  35
ATOM     35  O   UNL d   1      16.902  34.555  24.728  0.00  0.00    -0.360 OA
ATOM     36  H   UNL d   1      16.863  35.072  25.068  0.00  0.00     0.217 HD
ENDBRANCH   6  35
BRANCH   9  37
ATOM     37  C   UNL d   1      16.992  29.373  25.641  0.00  0.00    -0.002 A 
ATOM     38  C   UNL d   1      17.940  29.335  25.956  0.00  0.00     0.017 A 
ATOM     39  C   UNL d   1      18.432  28.465  25.958  0.00  0.00     0.037 A 
ATOM     40  C   UNL d   1      17.976  27.633  25.643  0.00  0.00     0.065 A 
ATOM     41  C   UNL d   1      17.028  27.670  25.327  0.00  0.00     0.037 A 
ATOM     42  C   UNL d   1      16.536  28.542  25.326  0.00  0.00     0.017 A 
BRANCH  40  43
ATOM     43  O   UNL d   1      18.467  26.761  25.644  0.00  0.00    -0.361 OA
ATOM     44  H   UNL d   1      18.433  26.386  26.138  0.00  0.00     0.217 HD
ENDBRANCH  40  43
ENDBRANCH   9  37
BRANCH   7  45
ATOM     45  O   UNL d   1      14.063  32.972  25.924  0.00  0.00    -0.360 OA
ATOM     46  H   UNL d   1      13.614  32.749  25.559  0.00  0.00     0.217 HD
ENDBRANCH   7  45
TORSDOF 9
ENDMDL
MODEL 4
REMARK VINA RESULT:    -9.637      2.504      6.920
REMARK INTER + INTRA:          -4.366
REMARK INTER:                 -13.336
REMARK INTRA:                   8.970
REMARK UNBOUND:                 8.651
REMARK  9 active torsions:
REMARK  status: ('A' for Active; 'I' for Inactive)
REMARK    1  A    between atoms: O_3  and  C_17 
REMARK    2  A    between atoms: O_4  and  C_18 
REMARK    3  A    between atoms: O_5  and  C_19 
REMARK    4  A    between atoms: O_7  and  C_32 
REMARK    5  A    between atoms: O_9  and  C_36 
REMARK    6  A    between atoms: O_10  and  C_40 
REMARK    7  A    between atoms: C_11  and  C_13 
REMARK    8  A    between atoms: C_15  and  C_20 
REMARK    9  A    between atoms: C_22  and  C_29 
ROOT
ATOM      1  O   UNL d   1      23.582  16.515  35.494  0.00  0.00    -0.308 OA
ATOM      2  O   UNL d   1      25.149  14.039  34.582  0.00  0.00    -0.287 OA
ATOM      3  C   UNL d   1      24.909  16.900  36.585  0.00  0.00     0.045 A 
ATOM      4  C   UNL d   1      24.519  16.293  35.894  0.00  0.00     0.107 A 
ATOM      5  C   UNL d   1      25.027  15.485  35.594  0.00  0.00     0.082 A 
ATOM      6  C   UNL d   1      25.807  16.700  36.977  0.00  0.00     0.082 A 
ATOM      7  C   UNL d   1      25.924  15.285  35.986  0.00  0.00     0.085 A 
ATOM      8  C   UNL d   1      26.315  15.892  36.678  0.00  0.00     0.075 A 
ATOM      9  C   UNL d   1      23.170  15.887  34.773  0.00  0.00     0.090 A 
ATOM     10  C   UNL d   1      24.633  14.844  34.874  0.00  0.00     0.190 A 
ATOM     11  C   UNL d   1      23.699  15.045  34.461  0.00  0.00     0.094 A 
ENDROOT
BRANCH   3  12
ATOM     12  C   UNL d   1      24.402  17.708  36.885  0.00  0.00     0.014 A 
ATOM     13  C   UNL d   1      23.875  17.681  37.735  0.00  0.00     0.029 A 
ATOM     14  C   UNL d   1      23.368  18.489  38.035  0.00  0.00    -0.001 A 
ATOM     15  C   UNL d   1      23.386  19.324  37.485  0.00  0.00     0.017 A 
ATOM     16  C   UNL d   1      23.913  19.351  36.635  0.00  0.00     0.038 A 
ATOM     17  C   UNL d   1      24.420  18.543  36.335  0.00  0.00     0.076 A 
BRANCH  14  18
ATOM     18  C   UNL d   1      22.841  18.462  38.885  0.00  0.00     0.090 A 
ATOM     19  O   UNL d   1      23.162  18.964  39.688  0.00  0.00    -0.309 OA
ATOM     20  C   UNL d   1      22.636  18.937  40.537  0.00  0.00     0.095 A 
ATOM     21  C   UNL d   1      21.789  18.407  40.584  0.00  0.00     0.081 A 
ATOM     22  C   UNL d   1      22.982  19.465  41.366  0.00  0.00     0.075 A 
ATOM     23  C   UNL d   1      21.468  17.905  39.781  0.00  0.00     0.190 A 
ATOM     24  C   UNL d   1      21.230  18.369  41.462  0.00  0.00     0.085 A 
ATOM     25  O   UNL d   1      20.621  17.375  39.828  0.00  0.00    -0.287 OA
ATOM     26  C   UNL d   1      21.994  17.932  38.931  0.00  0.00     0.094 A 
ATOM     27  C   UNL d   1      21.557  18.890  42.303  0.00  0.00     0.074 A 
ATOM     28  C   UNL d   1      22.440  19.442  42.255  0.00  0.00     0.071 A 
BRANCH  24  29
ATOM     29  O   UNL d   1      20.384  17.837  41.498  0.00  0.00    -0.360 OA
ATOM     30  H   UNL d   1      20.407  17.223  41.589  0.00  0.00     0.217 HD
ENDBRANCH  24  29
BRANCH  28  31
ATOM     31  O   UNL d   1      22.763  19.946  43.056  0.00  0.00    -0.361 OA
ATOM     32  H   UNL d   1      22.481  20.471  43.227  0.00  0.00     0.217 HD
ENDBRANCH  28  31
ENDBRANCH  14  18
BRANCH  17  33
ATOM     33  O   UNL d   1      24.947  18.570  35.485  0.00  0.00    -0.360 OA
ATOM     34  H   UNL d   1      25.432  18.193  35.409  0.00  0.00     0.217 HD
ENDBRANCH  17  33
ENDBRANCH   3  12
BRANCH   6  35
ATOM     35  O   UNL d   1      26.197  17.308  37.669  0.00  0.00    -0.360 OA
ATOM     36  H   UNL d   1      26.803  17.281  37.799  0.00  0.00     0.217 HD
ENDBRANCH   6  35
BRANCH   9  37
ATOM     37  C   UNL d   1      22.271  16.091  34.384  0.00  0.00    -0.002 A 
ATOM     38  C   UNL d   1      22.161  16.866  33.762  0.00  0.00     0.017 A 
ATOM     39  C   UNL d   1      21.263  17.071  33.372  0.00  0.00     0.037 A 
ATOM     40  C   UNL d   1      20.476  16.500  33.604  0.00  0.00     0.065 A 
ATOM     41  C   UNL d   1      20.586  15.724  34.226  0.00  0.00     0.037 A 
ATOM     42  C   UNL d   1      21.485  15.520  34.616  0.00  0.00     0.017 A 
BRANCH  40  43
ATOM     43  O   UNL d   1      19.578  16.704  33.214  0.00  0.00    -0.361 OA
ATOM     44  H   UNL d   1      19.524  16.836  32.610  0.00  0.00     0.217 HD
ENDBRANCH  40  43
ENDBRANCH   9  37
BRANCH   7  45
ATOM     45  O   UNL d   1      26.432  14.477  35.686  0.00  0.00    -0.360 OA
ATOM     46  H   UNL d   1      26.717  14.117  36.103  0.00  0.00     0.217 HD
ENDBRANCH   7  45
TORSDOF 9
ENDMDL
MODEL 5
REMARK VINA RESULT:    -9.581     13.727     16.866
REMARK INTER + INTRA:          -4.290
REMARK INTER:                 -13.152
REMARK INTRA:                   8.861
REMARK UNBOUND:                 8.651
REMARK  9 active torsions:
REMARK  status: ('A' for Active; 'I' for Inactive)
REMARK    1  A    between atoms: O_3  and  C_17 
REMARK    2  A    between atoms: O_4  and  C_18 
REMARK    3  A    between atoms: O_5  and  C_19 
REMARK    4  A    between atoms: O_7  and  C_32 
REMARK    5  A    between atoms: O_9  and  C_36 
REMARK    6  A    between atoms: O_10  and  C_40 
REMARK    7  A    between atoms: C_11  and  C_13 
REMARK    8  A    between atoms: C_15  and  C_20 
REMARK    9  A    between atoms: C_22  and  C_29 
ROOT
ATOM      1  O   UNL d   1      18.828  27.930  24.517  0.00  0.00    -0.308 OA
ATOM      2  O   UNL d   1      15.937  27.899  23.488  0.00  0.00    -0.287 OA
ATOM      3  C   UNL d   1      18.199  27.917  26.161  0.00  0.00     0.045 A 
ATOM      4  C   UNL d   1      18.022  27.918  25.177  0.00  0.00     0.107 A 
ATOM      5  C   UNL d   1      17.081  27.908  24.838  0.00  0.00     0.082 A 
ATOM      6  C   UNL d   1      17.435  27.906  26.806  0.00  0.00     0.082 A 
ATOM      7  C   UNL d   1      16.317  27.897  25.483  0.00  0.00     0.085 A 
ATOM      8  C   UNL d   1      16.494  27.896  26.468  0.00  0.00     0.075 A 
ATOM      9  C   UNL d   1      18.652  27.932  23.490  0.00  0.00     0.090 A 
ATOM     10  C   UNL d   1      16.882  27.909  23.816  0.00  0.00     0.190 A 
ATOM     11  C   UNL d   1      17.671  27.921  23.137  0.00  0.00     0.094 A 
ENDROOT
BRANCH   3  12
ATOM     12  C   UNL d   1      19.140  27.927  26.500  0.00  0.00     0.014 A 
ATOM     13  C   UNL d   1      19.656  28.783  26.516  0.00  0.00     0.029 A 
ATOM     14  C   UNL d   1      20.597  28.793  26.855  0.00  0.00    -0.001 A 
ATOM     15  C   UNL d   1      21.021  27.947  27.178  0.00  0.00     0.017 A 
ATOM     16  C   UNL d   1      20.505  27.091  27.161  0.00  0.00     0.038 A 
ATOM     17  C   UNL d   1      19.564  27.081  26.823  0.00  0.00     0.076 A 
BRANCH  14  18
ATOM     18  C   UNL d   1      21.113  29.650  26.871  0.00  0.00     0.090 A 
ATOM     19  O   UNL d   1      20.924  30.334  27.575  0.00  0.00    -0.309 OA
ATOM     20  C   UNL d   1      21.441  31.191  27.591  0.00  0.00     0.095 A 
ATOM     21  C   UNL d   1      22.146  31.362  26.903  0.00  0.00     0.081 A 
ATOM     22  C   UNL d   1      21.232  31.895  28.330  0.00  0.00     0.075 A 
ATOM     23  C   UNL d   1      22.336  30.677  26.200  0.00  0.00     0.190 A 
ATOM     24  C   UNL d   1      22.693  32.249  26.907  0.00  0.00     0.085 A 
ATOM     25  O   UNL d   1      23.041  30.848  25.512  0.00  0.00    -0.287 OA
ATOM     26  C   UNL d   1      21.819  29.821  26.184  0.00  0.00     0.094 A 
ATOM     27  C   UNL d   1      22.501  32.967  27.637  0.00  0.00     0.074 A 
ATOM     28  C   UNL d   1      21.766  32.789  28.354  0.00  0.00     0.071 A 
BRANCH  24  29
ATOM     29  O   UNL d   1      23.396  32.410  26.215  0.00  0.00    -0.360 OA
ATOM     30  H   UNL d   1      23.256  32.720  25.696  0.00  0.00     0.217 HD
ENDBRANCH  24  29
BRANCH  28  31
ATOM     31  O   UNL d   1      21.574  33.472  29.059  0.00  0.00    -0.361 OA
ATOM     32  H   UNL d   1      21.091  33.396  29.440  0.00  0.00     0.217 HD
ENDBRANCH  28  31
ENDBRANCH  14  18
BRANCH  17  33
ATOM     33  O   UNL d   1      19.048  26.225  26.806  0.00  0.00    -0.360 OA
ATOM     34  H   UNL d   1      18.433  26.232  26.887  0.00  0.00     0.217 HD
ENDBRANCH  17  33
ENDBRANCH   3  12
BRANCH   6  35
ATOM     35  O   UNL d   1      17.612  27.904  27.791  0.00  0.00    -0.360 OA
ATOM     36  H   UNL d   1      18.191  27.974  28.002  0.00  0.00     0.217 HD
ENDBRANCH   6  35
BRANCH   9  37
ATOM     37  C   UNL d   1      19.418  27.943  22.848  0.00  0.00    -0.002 A 
ATOM     38  C   UNL d   1      19.543  27.187  22.206  0.00  0.00     0.017 A 
ATOM     39  C   UNL d   1      20.309  27.197  21.564  0.00  0.00     0.037 A 
ATOM     40  C   UNL d   1      20.951  27.964  21.564  0.00  0.00     0.065 A 
ATOM     41  C   UNL d   1      20.826  28.721  22.207  0.00  0.00     0.037 A 
ATOM     42  C   UNL d   1      20.059  28.709  22.849  0.00  0.00     0.017 A 
BRANCH  40  43
ATOM     43  O   UNL d   1      21.718  27.976  20.922  0.00  0.00    -0.361 OA
ATOM     44  H   UNL d   1      22.196  28.360  21.017  0.00  0.00     0.217 HD
ENDBRANCH  40  43
ENDBRANCH   9  37
BRANCH   7  45
ATOM     45  O   UNL d   1      15.377  27.887  25.145  0.00  0.00    -0.360 OA
ATOM     46  H   UNL d   1      15.112  28.412  24.948  0.00  0.00     0.217 HD
ENDBRANCH   7  45
TORSDOF 9
ENDMDL
