MODEL 1
REMARK VINA RESULT:    -6.099      0.000      0.000
REMARK INTER + INTRA:          -6.936
REMARK INTER:                  -6.928
REMARK INTRA:                  -0.008
REMARK UNBOUND:                 0.055
REMARK  4 active torsions:
REMARK  status: ('A' for Active; 'I' for Inactive)
REMARK    1  A    between atoms: O_1  and  C_13 
REMARK    2  A    between atoms: O_4  and  C_16 
REMARK    3  A    between atoms: O_5  and  C_18 
REMARK    4  A    between atoms: C_14  and  C_18 
ROOT
ATOM      1  O   UNL d   1      48.204  -8.815  14.230  0.00  0.00    -0.286 OA
ATOM      2  O   UNL d   1      46.743 -11.381  16.928  0.00  0.00    -0.287 OA
ATOM      3  C   UNL d   1      47.715  -9.999  16.545  0.00  0.00     0.032 A 
ATOM      4  C   UNL d   1      48.080  -9.358  15.870  0.00  0.00     0.062 A 
ATOM      5  C   UNL d   1      47.232 -10.196  14.614  0.00  0.00     0.062 A 
ATOM      6  C   UNL d   1      46.867 -10.838  15.288  0.00  0.00     0.032 A 
ATOM      7  C   UNL d   1      47.839  -9.456  14.905  0.00  0.00     0.199 A 
ATOM      8  C   UNL d   1      47.108 -10.739  16.254  0.00  0.00     0.194 A 
ATOM      9  C   UNL d   1      47.957  -9.910  17.554  0.00  0.00     0.026 A 
ATOM     10  C   UNL d   1      48.713  -8.583  16.158  0.00  0.00     0.081 A 
ATOM     11  C   UNL d   1      48.588  -9.142  17.864  0.00  0.00    -0.031 A 
ATOM     12  C   UNL d   1      48.969  -8.474  17.162  0.00  0.00     0.046 A 
ATOM     13  C   UNL d   1      46.990 -10.286  13.605  0.00  0.00     0.080 A 
ATOM     14  C   UNL d   1      46.234 -11.613  15.001  0.00  0.00     0.017 A 
ATOM     15  C   UNL d   1      46.358 -11.054  13.295  0.00  0.00     0.037 A 
ATOM     16  C   UNL d   1      45.978 -11.722  13.997  0.00  0.00     0.004 A 
ENDROOT
BRANCH  11  17
ATOM     17  C   UNL d   1      48.827  -9.047  18.831  0.00  0.00     0.203 C 
BRANCH  17  18
ATOM     18  O   UNL d   1      49.429  -9.717  19.265  0.00  0.00    -0.396 OA
ATOM     19  H   UNL d   1      49.912  -9.949  18.952  0.00  0.00     0.209 HD
ENDBRANCH  17  18
ENDBRANCH  11  17
BRANCH  10  20
ATOM     20  O   UNL d   1      49.072  -7.947  15.475  0.00  0.00    -0.360 OA
ATOM     21  H   UNL d   1      49.383  -7.441  15.656  0.00  0.00     0.217 HD
ENDBRANCH  10  20
BRANCH  13  22
ATOM     22  O   UNL d   1      47.361  -9.639  12.939  0.00  0.00    -0.360 OA
ATOM     23  H   UNL d   1      47.884  -9.330  13.066  0.00  0.00     0.217 HD
ENDBRANCH  13  22
TORSDOF 4
ENDMDL
MODEL 2
REMARK VINA RESULT:    -6.084      9.864     11.521
REMARK INTER + INTRA:          -6.918
REMARK INTER:                  -6.965
REMARK INTRA:                   0.046
REMARK UNBOUND:                 0.055
REMARK  4 active torsions:
REMARK  status: ('A' for Active; 'I' for Inactive)
REMARK    1  A    between atoms: O_1  and  C_13 
REMARK    2  A    between atoms: O_4  and  C_16 
REMARK    3  A    between atoms: O_5  and  C_18 
REMARK    4  A    between atoms: C_14  and  C_18 
ROOT
ATOM      1  O   UNL d   1      49.085   1.883  15.179  0.00  0.00    -0.286 OA
ATOM      2  O   UNL d   1      45.900  -0.302  16.221  0.00  0.00    -0.287 OA
ATOM      3  C   UNL d   1      46.646   0.856  15.171  0.00  0.00     0.032 A 
ATOM      4  C   UNL d   1      47.443   1.402  14.910  0.00  0.00     0.062 A 
ATOM      5  C   UNL d   1      48.338   0.726  16.229  0.00  0.00     0.062 A 
ATOM      6  C   UNL d   1      47.542   0.180  16.490  0.00  0.00     0.032 A 
ATOM      7  C   UNL d   1      48.288   1.337  15.439  0.00  0.00     0.199 A 
ATOM      8  C   UNL d   1      46.696   0.244  15.961  0.00  0.00     0.194 A 
ATOM      9  C   UNL d   1      45.758   0.912  14.629  0.00  0.00     0.026 A 
ATOM     10  C   UNL d   1      47.405   2.042  14.090  0.00  0.00     0.081 A 
ATOM     11  C   UNL d   1      45.699   1.547  13.805  0.00  0.00    -0.031 A 
ATOM     12  C   UNL d   1      46.528   2.115  13.534  0.00  0.00     0.046 A 
ATOM     13  C   UNL d   1      49.226   0.669  16.771  0.00  0.00     0.080 A 
ATOM     14  C   UNL d   1      47.579  -0.462  17.310  0.00  0.00     0.017 A 
ATOM     15  C   UNL d   1      49.285   0.034  17.595  0.00  0.00     0.037 A 
ATOM     16  C   UNL d   1      48.456  -0.534  17.867  0.00  0.00     0.004 A 
ENDROOT
BRANCH  11  17
ATOM     17  C   UNL d   1      44.851   1.608  13.278  0.00  0.00     0.203 C 
BRANCH  17  18
ATOM     18  O   UNL d   1      44.883   1.607  12.279  0.00  0.00    -0.396 OA
ATOM     19  H   UNL d   1      45.145   2.080  11.976  0.00  0.00     0.209 HD
ENDBRANCH  17  18
ENDBRANCH  11  17
BRANCH  10  20
ATOM     20  O   UNL d   1      48.208   2.584  13.838  0.00  0.00    -0.360 OA
ATOM     21  H   UNL d   1      48.731   2.533  14.167  0.00  0.00     0.217 HD
ENDBRANCH  10  20
BRANCH  13  22
ATOM     22  O   UNL d   1      50.016   1.219  16.501  0.00  0.00    -0.360 OA
ATOM     23  H   UNL d   1      50.277   1.606  16.910  0.00  0.00     0.217 HD
ENDBRANCH  13  22
TORSDOF 4
ENDMDL
MODEL 3
REMARK VINA RESULT:    -6.083     11.256     12.347
REMARK INTER + INTRA:          -6.917
REMARK INTER:                  -6.911
REMARK INTRA:                  -0.005
REMARK UNBOUND:                 0.055
REMARK  4 active torsions:
REMARK  status: ('A' for Active; 'I' for Inactive)
REMARK    1  A    between atoms: O_1  and  C_13 
REMARK    2  A    between atoms: O_4  and  C_16 
REMARK    3  A    between atoms: O_5  and  C_18 
REMARK    4  A    between atoms: C_14  and  C_18 
ROOT
ATOM      1  O   UNL d   1      45.558   1.286  11.762  0.00  0.00    -0.286 OA
ATOM      2  O   UNL d   1      45.293   2.874  15.424  0.00  0.00    -0.287 OA
ATOM      3  C   UNL d   1      46.202   2.022  14.220  0.00  0.00     0.032 A 
ATOM      4  C   UNL d   1      46.268   1.625  13.305  0.00  0.00     0.062 A 
ATOM      5  C   UNL d   1      44.649   2.137  12.966  0.00  0.00     0.062 A 
ATOM      6  C   UNL d   1      44.582   2.535  13.881  0.00  0.00     0.032 A 
ATOM      7  C   UNL d   1      45.491   1.683  12.678  0.00  0.00     0.199 A 
ATOM      8  C   UNL d   1      45.359   2.477  14.508  0.00  0.00     0.194 A 
ATOM      9  C   UNL d   1      47.002   1.971  14.885  0.00  0.00     0.026 A 
ATOM     10  C   UNL d   1      47.139   1.149  12.991  0.00  0.00     0.081 A 
ATOM     11  C   UNL d   1      47.883   1.498  14.592  0.00  0.00    -0.031 A 
ATOM     12  C   UNL d   1      47.952   1.085  13.640  0.00  0.00     0.046 A 
ATOM     13  C   UNL d   1      43.848   2.190  12.302  0.00  0.00     0.080 A 
ATOM     14  C   UNL d   1      43.711   3.011  14.195  0.00  0.00     0.017 A 
ATOM     15  C   UNL d   1      42.967   2.662  12.594  0.00  0.00     0.037 A 
ATOM     16  C   UNL d   1      42.898   3.075  13.547  0.00  0.00     0.004 A 
ENDROOT
BRANCH  11  17
ATOM     17  C   UNL d   1      48.658   1.443  15.223  0.00  0.00     0.203 C 
BRANCH  17  18
ATOM     18  O   UNL d   1      48.783   0.629  15.790  0.00  0.00    -0.396 OA
ATOM     19  H   UNL d   1      48.866   0.686  16.402  0.00  0.00     0.209 HD
ENDBRANCH  17  18
ENDBRANCH  11  17
BRANCH  10  20
ATOM     20  O   UNL d   1      47.194   0.755  12.074  0.00  0.00    -0.360 OA
ATOM     21  H   UNL d   1      46.691   0.744  11.711  0.00  0.00     0.217 HD
ENDBRANCH  10  20
BRANCH  13  22
ATOM     22  O   UNL d   1      43.926   1.789  11.389  0.00  0.00    -0.360 OA
ATOM     23  H   UNL d   1      44.226   1.252  11.311  0.00  0.00     0.217 HD
ENDBRANCH  13  22
TORSDOF 4
ENDMDL
MODEL 4
REMARK VINA RESULT:    -6.065      9.258     10.954
REMARK INTER + INTRA:          -6.896
REMARK INTER:                  -6.891
REMARK INTRA:                  -0.005
REMARK UNBOUND:                 0.055
REMARK  4 active torsions:
REMARK  status: ('A' for Active; 'I' for Inactive)
REMARK    1  A    between atoms: O_1  and  C_13 
REMARK    2  A    between atoms: O_4  and  C_16 
REMARK    3  A    between atoms: O_5  and  C_18 
REMARK    4  A    between atoms: C_14  and  C_18 
ROOT
ATOM      1  O   UNL d   1      47.046  -1.453  17.222  0.00  0.00    -0.286 OA
ATOM      2  O   UNL d   1      48.804   1.888  15.899  0.00  0.00    -0.287 OA
ATOM      3  C   UNL d   1      47.632   0.628  15.697  0.00  0.00     0.032 A 
ATOM      4  C   UNL d   1      47.193  -0.207  16.028  0.00  0.00     0.062 A 
ATOM      5  C   UNL d   1      48.218  -0.193  17.424  0.00  0.00     0.062 A 
ATOM      6  C   UNL d   1      48.657   0.642  17.093  0.00  0.00     0.032 A 
ATOM      7  C   UNL d   1      47.486  -0.618  16.891  0.00  0.00     0.199 A 
ATOM      8  C   UNL d   1      48.365   1.053  16.230  0.00  0.00     0.194 A 
ATOM      9  C   UNL d   1      47.338   1.068  14.800  0.00  0.00     0.026 A 
ATOM     10  C   UNL d   1      46.429  -0.660  15.484  0.00  0.00     0.081 A 
ATOM     11  C   UNL d   1      46.576   0.632  14.240  0.00  0.00    -0.031 A 
ATOM     12  C   UNL d   1      46.118  -0.238  14.584  0.00  0.00     0.046 A 
ATOM     13  C   UNL d   1      48.512  -0.632  18.321  0.00  0.00     0.080 A 
ATOM     14  C   UNL d   1      49.422   1.096  17.637  0.00  0.00     0.017 A 
ATOM     15  C   UNL d   1      49.275  -0.196  18.881  0.00  0.00     0.037 A 
ATOM     16  C   UNL d   1      49.732   0.673  18.537  0.00  0.00     0.004 A 
ENDROOT
BRANCH  11  17
ATOM     17  C   UNL d   1      46.286   1.046  13.377  0.00  0.00     0.203 C 
BRANCH  17  18
ATOM     18  O   UNL d   1      46.673   0.723  12.513  0.00  0.00    -0.396 OA
ATOM     19  H   UNL d   1      47.275   0.811  12.391  0.00  0.00     0.209 HD
ENDBRANCH  17  18
ENDBRANCH  11  17
BRANCH  10  20
ATOM     20  O   UNL d   1      45.996  -1.495  15.825  0.00  0.00    -0.360 OA
ATOM     21  H   UNL d   1      45.892  -1.564  16.432  0.00  0.00     0.217 HD
ENDBRANCH  10  20
BRANCH  13  22
ATOM     22  O   UNL d   1      48.066  -1.468  18.642  0.00  0.00    -0.360 OA
ATOM     23  H   UNL d   1      48.318  -2.021  18.519  0.00  0.00     0.217 HD
ENDBRANCH  13  22
TORSDOF 4
ENDMDL
MODEL 5
REMARK VINA RESULT:    -5.922     16.676     18.440
REMARK INTER + INTRA:          -6.733
REMARK INTER:                  -6.735
REMARK INTRA:                   0.002
REMARK UNBOUND:                 0.055
REMARK  4 active torsions:
REMARK  status: ('A' for Active; 'I' for Inactive)
REMARK    1  A    between atoms: O_1  and  C_13 
REMARK    2  A    between atoms: O_4  and  C_16 
REMARK    3  A    between atoms: O_5  and  C_18 
REMARK    4  A    between atoms: C_14  and  C_18 
ROOT
ATOM      1  O   UNL d   1      43.275   2.817   4.254  0.00  0.00    -0.286 OA
ATOM      2  O   UNL d   1      41.757   1.191   0.929  0.00  0.00    -0.287 OA
ATOM      3  C   UNL d   1      42.297   1.029   2.567  0.00  0.00     0.032 A 
ATOM      4  C   UNL d   1      42.676   1.435   3.398  0.00  0.00     0.062 A 
ATOM      5  C   UNL d   1      42.736   2.979   2.616  0.00  0.00     0.062 A 
ATOM      6  C   UNL d   1      42.356   2.573   1.785  0.00  0.00     0.032 A 
ATOM      7  C   UNL d   1      42.896   2.411   3.423  0.00  0.00     0.199 A 
ATOM      8  C   UNL d   1      42.137   1.597   1.760  0.00  0.00     0.194 A 
ATOM      9  C   UNL d   1      42.063   0.014   2.526  0.00  0.00     0.026 A 
ATOM     10  C   UNL d   1      42.848   0.855   4.246  0.00  0.00     0.081 A 
ATOM     11  C   UNL d   1      42.227  -0.584   3.363  0.00  0.00    -0.031 A 
ATOM     12  C   UNL d   1      42.622  -0.161   4.228  0.00  0.00     0.046 A 
ATOM     13  C   UNL d   1      42.969   3.993   2.656  0.00  0.00     0.080 A 
ATOM     14  C   UNL d   1      42.184   3.152   0.936  0.00  0.00     0.017 A 
ATOM     15  C   UNL d   1      42.805   4.592   1.819  0.00  0.00     0.037 A 
ATOM     16  C   UNL d   1      42.411   4.169   0.954  0.00  0.00     0.004 A 
ENDROOT
BRANCH  11  17
ATOM     17  C   UNL d   1      42.006  -1.560   3.334  0.00  0.00     0.203 C 
BRANCH  17  18
ATOM     18  O   UNL d   1      42.739  -2.236   3.259  0.00  0.00    -0.396 OA
ATOM     19  H   UNL d   1      42.657  -2.745   2.914  0.00  0.00     0.209 HD
ENDBRANCH  17  18
ENDBRANCH  11  17
BRANCH  10  20
ATOM     20  O   UNL d   1      43.228   1.273   5.072  0.00  0.00    -0.360 OA
ATOM     21  H   UNL d   1      43.729   1.025   5.341  0.00  0.00     0.217 HD
ENDBRANCH  10  20
BRANCH  13  22
ATOM     22  O   UNL d   1      43.348   4.389   3.492  0.00  0.00    -0.360 OA
ATOM     23  H   UNL d   1      43.520   4.019   3.960  0.00  0.00     0.217 HD
ENDBRANCH  13  22
TORSDOF 4
ENDMDL
