MODEL 1
REMARK VINA RESULT:    -9.224      0.000      0.000
REMARK INTER + INTRA:          -8.913
REMARK INTER:                  -9.939
REMARK INTRA:                   1.026
REMARK UNBOUND:                 1.390
REMARK  3 active torsions:
REMARK  status: ('A' for Active; 'I' for Inactive)
REMARK    1  A    between atoms: O_2  and  C_10 
REMARK    2  A    between atoms: O_4  and  C_13 
REMARK    3  A    between atoms: C_7  and  C_9 
ROOT
ATOM      1  O   UNL d   1     -21.740  24.587  28.786  0.00  0.00    -0.309 OA
ATOM      2  O   UNL d   1     -20.864  21.755  29.247  0.00  0.00    -0.287 OA
ATOM      3  C   UNL d   1     -20.651  23.282  28.457  0.00  0.00     0.081 A 
ATOM      4  C   UNL d   1     -20.943  24.226  28.303  0.00  0.00     0.095 A 
ATOM      5  C   UNL d   1     -22.246  24.005  29.423  0.00  0.00     0.090 A 
ATOM      6  C   UNL d   1     -21.156  22.699  29.093  0.00  0.00     0.190 A 
ATOM      7  C   UNL d   1     -19.822  22.892  27.961  0.00  0.00     0.085 A 
ATOM      8  C   UNL d   1     -21.954  23.061  29.576  0.00  0.00     0.094 A 
ATOM      9  C   UNL d   1     -20.427  24.845  27.643  0.00  0.00     0.075 A 
ATOM     10  C   UNL d   1     -19.595  24.475  27.136  0.00  0.00     0.071 A 
ATOM     11  C   UNL d   1     -19.291  23.492  27.296  0.00  0.00     0.074 A 
ENDROOT
BRANCH   5  12
ATOM     12  C   UNL d   1     -23.043  24.366  29.906  0.00  0.00    -0.002 A 
ATOM     13  C   UNL d   1     -23.907  24.496  29.418  0.00  0.00     0.014 A 
ATOM     14  C   UNL d   1     -24.704  24.857  29.901  0.00  0.00     0.001 A 
ATOM     15  C   UNL d   1     -24.638  25.089  30.872  0.00  0.00     0.000 A 
ATOM     16  C   UNL d   1     -23.775  24.959  31.359  0.00  0.00     0.001 A 
ATOM     17  C   UNL d   1     -22.977  24.598  30.876  0.00  0.00     0.014 A 
ENDBRANCH   5  12
BRANCH   7  18
ATOM     18  O   UNL d   1     -19.539  21.946  28.122  0.00  0.00    -0.360 OA
ATOM     19  H   UNL d   1     -19.960  21.491  28.113  0.00  0.00     0.217 HD
ENDBRANCH   7  18
BRANCH  10  20
ATOM     20  O   UNL d   1     -19.092  25.061  26.500  0.00  0.00    -0.361 OA
ATOM     21  H   UNL d   1     -18.767  25.543  26.715  0.00  0.00     0.217 HD
ENDBRANCH  10  20
TORSDOF 3
ENDMDL
MODEL 2
REMARK VINA RESULT:    -9.200      0.913      2.060
REMARK INTER + INTRA:          -8.885
REMARK INTER:                  -9.894
REMARK INTRA:                   1.009
REMARK UNBOUND:                 1.390
REMARK  3 active torsions:
REMARK  status: ('A' for Active; 'I' for Inactive)
REMARK    1  A    between atoms: O_2  and  C_10 
REMARK    2  A    between atoms: O_4  and  C_13 
REMARK    3  A    between atoms: C_7  and  C_9 
ROOT
ATOM      1  O   UNL d   1     -22.215  23.366  29.645  0.00  0.00    -0.309 OA
ATOM      2  O   UNL d   1     -20.680  25.341  27.988  0.00  0.00    -0.287 OA
ATOM      3  C   UNL d   1     -20.915  23.722  28.556  0.00  0.00     0.081 A 
ATOM      4  C   UNL d   1     -21.427  23.064  29.109  0.00  0.00     0.095 A 
ATOM      5  C   UNL d   1     -22.491  24.327  29.629  0.00  0.00     0.090 A 
ATOM      6  C   UNL d   1     -21.191  24.683  28.541  0.00  0.00     0.190 A 
ATOM      7  C   UNL d   1     -20.093  23.422  27.993  0.00  0.00     0.085 A 
ATOM      8  C   UNL d   1     -21.979  24.986  29.077  0.00  0.00     0.094 A 
ATOM      9  C   UNL d   1     -21.151  22.059  29.135  0.00  0.00     0.075 A 
ATOM     10  C   UNL d   1     -20.331  21.737  28.579  0.00  0.00     0.071 A 
ATOM     11  C   UNL d   1     -19.799  22.422  28.005  0.00  0.00     0.074 A 
ENDROOT
BRANCH   5  12
ATOM     12  C   UNL d   1     -23.279  24.630  30.165  0.00  0.00    -0.002 A 
ATOM     13  C   UNL d   1     -24.168  24.751  29.724  0.00  0.00     0.014 A 
ATOM     14  C   UNL d   1     -24.956  25.053  30.260  0.00  0.00     0.001 A 
ATOM     15  C   UNL d   1     -24.855  25.235  31.238  0.00  0.00     0.000 A 
ATOM     16  C   UNL d   1     -23.966  25.115  31.680  0.00  0.00     0.001 A 
ATOM     17  C   UNL d   1     -23.178  24.812  31.143  0.00  0.00     0.014 A 
ENDBRANCH   5  12
BRANCH   7  18
ATOM     18  O   UNL d   1     -19.588  24.089  27.444  0.00  0.00    -0.360 OA
ATOM     19  H   UNL d   1     -19.383  23.934  26.881  0.00  0.00     0.217 HD
ENDBRANCH   7  18
BRANCH  10  20
ATOM     20  O   UNL d   1     -20.058  20.775  28.598  0.00  0.00    -0.361 OA
ATOM     21  H   UNL d   1     -19.492  20.618  28.794  0.00  0.00     0.217 HD
ENDBRANCH  10  20
TORSDOF 3
ENDMDL
MODEL 3
REMARK VINA RESULT:    -8.711     12.842     14.121
REMARK INTER + INTRA:          -8.340
REMARK INTER:                  -9.504
REMARK INTRA:                   1.164
REMARK UNBOUND:                 1.390
REMARK  3 active torsions:
REMARK  status: ('A' for Active; 'I' for Inactive)
REMARK    1  A    between atoms: O_2  and  C_10 
REMARK    2  A    between atoms: O_4  and  C_13 
REMARK    3  A    between atoms: C_7  and  C_9 
ROOT
ATOM      1  O   UNL d   1     -18.182  12.735  37.443  0.00  0.00    -0.309 OA
ATOM      2  O   UNL d   1     -17.172  13.672  34.778  0.00  0.00    -0.287 OA
ATOM      3  C   UNL d   1     -16.903  12.855  36.281  0.00  0.00     0.081 A 
ATOM      4  C   UNL d   1     -17.240  12.543  37.170  0.00  0.00     0.095 A 
ATOM      5  C   UNL d   1     -18.788  13.239  36.828  0.00  0.00     0.090 A 
ATOM      6  C   UNL d   1     -17.509  13.360  35.666  0.00  0.00     0.190 A 
ATOM      7  C   UNL d   1     -15.924  12.662  35.983  0.00  0.00     0.085 A 
ATOM      8  C   UNL d   1     -18.452  13.552  35.939  0.00  0.00     0.094 A 
ATOM      9  C   UNL d   1     -16.621  12.016  37.821  0.00  0.00     0.075 A 
ATOM     10  C   UNL d   1     -15.638  11.812  37.543  0.00  0.00     0.071 A 
ATOM     11  C   UNL d   1     -15.287  12.137  36.619  0.00  0.00     0.074 A 
ENDROOT
BRANCH   5  12
ATOM     12  C   UNL d   1     -19.731  13.432  37.101  0.00  0.00    -0.002 A 
ATOM     13  C   UNL d   1     -20.317  12.691  37.430  0.00  0.00     0.014 A 
ATOM     14  C   UNL d   1     -21.259  12.883  37.704  0.00  0.00     0.001 A 
ATOM     15  C   UNL d   1     -21.616  13.816  37.647  0.00  0.00     0.000 A 
ATOM     16  C   UNL d   1     -21.030  14.556  37.318  0.00  0.00     0.001 A 
ATOM     17  C   UNL d   1     -20.087  14.364  37.045  0.00  0.00     0.014 A 
ENDBRANCH   5  12
BRANCH   7  18
ATOM     18  O   UNL d   1     -15.598  12.980  35.093  0.00  0.00    -0.360 OA
ATOM     19  H   UNL d   1     -15.920  12.848  34.580  0.00  0.00     0.217 HD
ENDBRANCH   7  18
BRANCH  10  20
ATOM     20  O   UNL d   1     -15.035  11.307  38.162  0.00  0.00    -0.361 OA
ATOM     21  H   UNL d   1     -14.517  11.574  38.375  0.00  0.00     0.217 HD
ENDBRANCH  10  20
TORSDOF 3
ENDMDL
MODEL 4
REMARK VINA RESULT:    -8.436     31.277     33.010
REMARK INTER + INTRA:          -8.033
REMARK INTER:                  -9.045
REMARK INTRA:                   1.012
REMARK UNBOUND:                 1.390
REMARK  3 active torsions:
REMARK  status: ('A' for Active; 'I' for Inactive)
REMARK    1  A    between atoms: O_2  and  C_10 
REMARK    2  A    between atoms: O_4  and  C_13 
REMARK    3  A    between atoms: C_7  and  C_9 
ROOT
ATOM      1  O   UNL d   1     -24.577  23.958  -3.533  0.00  0.00    -0.309 OA
ATOM      2  O   UNL d   1     -22.292  22.721  -5.032  0.00  0.00    -0.287 OA
ATOM      3  C   UNL d   1     -23.992  22.847  -4.726  0.00  0.00     0.081 A 
ATOM      4  C   UNL d   1     -24.754  23.259  -4.226  0.00  0.00     0.095 A 
ATOM      5  C   UNL d   1     -23.638  24.245  -3.340  0.00  0.00     0.090 A 
ATOM      6  C   UNL d   1     -23.054  23.133  -4.533  0.00  0.00     0.190 A 
ATOM      7  C   UNL d   1     -24.161  22.118  -5.450  0.00  0.00     0.085 A 
ATOM      8  C   UNL d   1     -22.877  23.832  -3.840  0.00  0.00     0.094 A 
ATOM      9  C   UNL d   1     -25.737  22.971  -4.416  0.00  0.00     0.075 A 
ATOM     10  C   UNL d   1     -25.929  22.244  -5.136  0.00  0.00     0.071 A 
ATOM     11  C   UNL d   1     -25.136  21.814  -5.656  0.00  0.00     0.074 A 
ENDROOT
BRANCH   5  12
ATOM     12  C   UNL d   1     -23.462  24.944  -2.647  0.00  0.00    -0.002 A 
ATOM     13  C   UNL d   1     -23.456  24.697  -1.678  0.00  0.00     0.014 A 
ATOM     14  C   UNL d   1     -23.279  25.396  -0.985  0.00  0.00     0.001 A 
ATOM     15  C   UNL d   1     -23.108  26.342  -1.262  0.00  0.00     0.000 A 
ATOM     16  C   UNL d   1     -23.114  26.589  -2.231  0.00  0.00     0.001 A 
ATOM     17  C   UNL d   1     -23.291  25.890  -2.924  0.00  0.00     0.014 A 
ENDBRANCH   5  12
BRANCH   7  18
ATOM     18  O   UNL d   1     -23.392  21.712  -5.943  0.00  0.00    -0.360 OA
ATOM     19  H   UNL d   1     -23.457  21.162  -6.221  0.00  0.00     0.217 HD
ENDBRANCH   7  18
BRANCH  10  20
ATOM     20  O   UNL d   1     -26.869  21.960  -5.326  0.00  0.00    -0.361 OA
ATOM     21  H   UNL d   1     -27.323  22.112  -4.933  0.00  0.00     0.217 HD
ENDBRANCH  10  20
TORSDOF 3
ENDMDL
MODEL 5
REMARK VINA RESULT:    -8.424     31.214     32.929
REMARK INTER + INTRA:          -8.019
REMARK INTER:                  -9.041
REMARK INTRA:                   1.022
REMARK UNBOUND:                 1.390
REMARK  3 active torsions:
REMARK  status: ('A' for Active; 'I' for Inactive)
REMARK    1  A    between atoms: O_2  and  C_10 
REMARK    2  A    between atoms: O_4  and  C_13 
REMARK    3  A    between atoms: C_7  and  C_9 
ROOT
ATOM      1  O   UNL d   1     -23.034  24.077  -3.802  0.00  0.00    -0.309 OA
ATOM      2  O   UNL d   1     -25.864  23.138  -4.128  0.00  0.00    -0.287 OA
ATOM      3  C   UNL d   1     -24.200  23.081  -4.606  0.00  0.00     0.081 A 
ATOM      4  C   UNL d   1     -23.257  23.394  -4.497  0.00  0.00     0.095 A 
ATOM      5  C   UNL d   1     -23.754  24.448  -3.216  0.00  0.00     0.090 A 
ATOM      6  C   UNL d   1     -24.921  23.451  -4.019  0.00  0.00     0.190 A 
ATOM      7  C   UNL d   1     -24.447  22.369  -5.325  0.00  0.00     0.085 A 
ATOM      8  C   UNL d   1     -24.698  24.135  -3.324  0.00  0.00     0.094 A 
ATOM      9  C   UNL d   1     -22.495  23.017  -5.100  0.00  0.00     0.075 A 
ATOM     10  C   UNL d   1     -22.720  22.305  -5.826  0.00  0.00     0.071 A 
ATOM     11  C   UNL d   1     -23.702  21.979  -5.939  0.00  0.00     0.074 A 
ENDROOT
BRANCH   5  12
ATOM     12  C   UNL d   1     -23.532  25.131  -2.521  0.00  0.00    -0.002 A 
ATOM     13  C   UNL d   1     -23.362  26.080  -2.788  0.00  0.00     0.014 A 
ATOM     14  C   UNL d   1     -23.139  26.763  -2.093  0.00  0.00     0.001 A 
ATOM     15  C   UNL d   1     -23.086  26.498  -1.131  0.00  0.00     0.000 A 
ATOM     16  C   UNL d   1     -23.255  25.550  -0.863  0.00  0.00     0.001 A 
ATOM     17  C   UNL d   1     -23.478  24.866  -1.558  0.00  0.00     0.014 A 
ENDBRANCH   5  12
BRANCH   7  18
ATOM     18  O   UNL d   1     -25.394  22.064  -5.425  0.00  0.00    -0.360 OA
ATOM     19  H   UNL d   1     -25.658  22.051  -5.986  0.00  0.00     0.217 HD
ENDBRANCH   7  18
BRANCH  10  20
ATOM     20  O   UNL d   1     -21.996  21.937  -6.410  0.00  0.00    -0.361 OA
ATOM     21  H   UNL d   1     -21.539  22.307  -6.606  0.00  0.00     0.217 HD
ENDBRANCH  10  20
TORSDOF 3
ENDMDL
