MODEL 1
REMARK VINA RESULT:    -6.919      0.000      0.000
REMARK INTER + INTRA:          -4.718
REMARK INTER:                  -7.696
REMARK INTRA:                   2.978
REMARK UNBOUND:                 3.010
REMARK  2 active torsions:
REMARK  status: ('A' for Active; 'I' for Inactive)
REMARK    1  A    between atoms: O_3  and  C_17 
REMARK    2  A    between atoms: O_4  and  C_21 
ROOT
ATOM      1  O   UNL d   1       0.804   4.701   3.123  0.00  0.00    -0.323 OA
ATOM      2  O   UNL d   1       2.456   4.411   3.121  0.00  0.00    -0.323 OA
ATOM      3  N   UNL d   1       1.101   4.409   7.635  0.00  0.00    -0.400 N 
ATOM      4  C   UNL d   1       0.616   4.540   6.771  0.00  0.00     0.117 A 
ATOM      5  C   UNL d   1      -0.410   4.721   6.755  0.00  0.00     0.069 A 
ATOM      6  C   UNL d   1       1.115   4.498   5.905  0.00  0.00    -0.026 A 
ATOM      7  C   UNL d   1       2.086   4.236   7.634  0.00  0.00     0.122 A 
ATOM      8  C   UNL d   1       0.594   4.449   8.544  0.00  0.00     0.160 A 
ATOM      9  C   UNL d   1       2.586   4.194   6.769  0.00  0.00     0.058 A 
ATOM     10  C   UNL d   1       2.100   4.326   5.904  0.00  0.00    -0.045 A 
ATOM     11  C   UNL d   1      -0.937   4.765   7.653  0.00  0.00    -0.045 A 
ATOM     12  C   UNL d   1      -0.432   4.629   8.552  0.00  0.00     0.002 A 
ATOM     13  C   UNL d   1       0.595   4.637   5.013  0.00  0.00     0.049 A 
ATOM     14  C   UNL d   1       2.634   4.279   5.011  0.00  0.00     0.047 A 
ATOM     15  C   UNL d   1      -0.959   4.671   9.500  0.00  0.00     0.110 A 
ATOM     16  C   UNL d   1      -2.006   4.953   7.637  0.00  0.00     0.011 A 
ATOM     17  C   UNL d   1       1.109   4.595   4.107  0.00  0.00     0.105 A 
ATOM     18  C   UNL d   1       2.135   4.415   4.106  0.00  0.00     0.105 A 
ATOM     19  C   UNL d   1      -2.028   4.858   9.509  0.00  0.00     0.102 A 
ATOM     20  C   UNL d   1      -2.555   5.000   8.572  0.00  0.00     0.040 A 
ATOM     21  C   UNL d   1       1.635   4.587   2.516  0.00  0.00     0.352 A 
ENDROOT
BRANCH  15  22
ATOM     22  O   UNL d   1      -0.464   4.538  10.358  0.00  0.00    -0.352 OA
ATOM     23  C   UNL d   1      -0.093   5.326  10.849  0.00  0.00     0.210 C 
ENDBRANCH  15  22
BRANCH  19  24
ATOM     24  O   UNL d   1      -2.524   4.899  10.376  0.00  0.00    -0.353 OA
ATOM     25  C   UNL d   1      -3.523   4.939  10.380  0.00  0.00     0.210 C 
ENDBRANCH  19  24
TORSDOF 2
ENDMDL
MODEL 2
REMARK VINA RESULT:    -6.740      2.102      6.424
REMARK INTER + INTRA:          -4.518
REMARK INTER:                  -7.493
REMARK INTRA:                   2.974
REMARK UNBOUND:                 3.010
REMARK  2 active torsions:
REMARK  status: ('A' for Active; 'I' for Inactive)
REMARK    1  A    between atoms: O_3  and  C_17 
REMARK    2  A    between atoms: O_4  and  C_21 
ROOT
ATOM      1  O   UNL d   1       1.375   3.874   9.204  0.00  0.00    -0.323 OA
ATOM      2  O   UNL d   1      -0.247   3.546   8.933  0.00  0.00    -0.323 OA
ATOM      3  N   UNL d   1       1.482   5.195   4.872  0.00  0.00    -0.400 N 
ATOM      4  C   UNL d   1       1.883   5.027   5.772  0.00  0.00     0.117 A 
ATOM      5  C   UNL d   1       2.889   5.225   5.956  0.00  0.00     0.069 A 
ATOM      6  C   UNL d   1       1.316   4.663   6.511  0.00  0.00    -0.026 A 
ATOM      7  C   UNL d   1       0.515   4.999   4.710  0.00  0.00     0.122 A 
ATOM      8  C   UNL d   1       2.060   5.573   4.092  0.00  0.00     0.160 A 
ATOM      9  C   UNL d   1      -0.052   4.636   5.449  0.00  0.00     0.058 A 
ATOM     10  C   UNL d   1       0.348   4.468   6.350  0.00  0.00    -0.045 A 
ATOM     11  C   UNL d   1       3.485   5.604   5.191  0.00  0.00    -0.045 A 
ATOM     12  C   UNL d   1       3.069   5.779   4.253  0.00  0.00     0.002 A 
ATOM     13  C   UNL d   1       1.747   4.493   7.445  0.00  0.00     0.049 A 
ATOM     14  C   UNL d   1      -0.255   4.089   7.110  0.00  0.00     0.047 A 
ATOM     15  C   UNL d   1       3.670   6.173   3.441  0.00  0.00     0.110 A 
ATOM     16  C   UNL d   1       4.533   5.811   5.383  0.00  0.00     0.011 A 
ATOM     17  C   UNL d   1       1.163   4.114   8.220  0.00  0.00     0.105 A 
ATOM     18  C   UNL d   1       0.155   3.911   8.051  0.00  0.00     0.105 A 
ATOM     19  C   UNL d   1       4.721   6.388   3.609  0.00  0.00     0.102 A 
ATOM     20  C   UNL d   1       5.155   6.205   4.586  0.00  0.00     0.040 A 
ATOM     21  C   UNL d   1       0.505   3.523   9.644  0.00  0.00     0.352 A 
ENDROOT
BRANCH  15  22
ATOM     22  O   UNL d   1       3.260   6.338   2.544  0.00  0.00    -0.352 OA
ATOM     23  C   UNL d   1       3.242   5.608   1.861  0.00  0.00     0.210 C 
ENDBRANCH  15  22
BRANCH  19  24
ATOM     24  O   UNL d   1       5.285   6.751   2.867  0.00  0.00    -0.353 OA
ATOM     25  C   UNL d   1       6.233   7.016   3.043  0.00  0.00     0.210 C 
ENDBRANCH  19  24
TORSDOF 2
ENDMDL
MODEL 3
REMARK VINA RESULT:    -6.724      1.773      2.721
REMARK INTER + INTRA:          -4.501
REMARK INTER:                  -7.476
REMARK INTRA:                   2.976
REMARK UNBOUND:                 3.010
REMARK  2 active torsions:
REMARK  status: ('A' for Active; 'I' for Inactive)
REMARK    1  A    between atoms: O_3  and  C_17 
REMARK    2  A    between atoms: O_4  and  C_21 
ROOT
ATOM      1  O   UNL d   1       1.604   3.010   2.043  0.00  0.00    -0.323 OA
ATOM      2  O   UNL d   1       2.522   4.080   1.136  0.00  0.00    -0.323 OA
ATOM      3  N   UNL d   1       2.225   5.908   5.469  0.00  0.00    -0.400 N 
ATOM      4  C   UNL d   1       1.868   5.075   5.048  0.00  0.00     0.117 A 
ATOM      5  C   UNL d   1       1.296   4.400   5.598  0.00  0.00     0.069 A 
ATOM      6  C   UNL d   1       2.058   4.880   4.085  0.00  0.00    -0.026 A 
ATOM      7  C   UNL d   1       2.773   6.547   4.928  0.00  0.00     0.122 A 
ATOM      8  C   UNL d   1       2.036   6.124   6.470  0.00  0.00     0.160 A 
ATOM      9  C   UNL d   1       2.963   6.352   3.966  0.00  0.00     0.058 A 
ATOM     10  C   UNL d   1       2.606   5.519   3.545  0.00  0.00    -0.045 A 
ATOM     11  C   UNL d   1       1.094   4.596   6.601  0.00  0.00    -0.045 A 
ATOM     12  C   UNL d   1       1.466   5.464   7.039  0.00  0.00     0.002 A 
ATOM     13  C   UNL d   1       1.679   4.007   3.660  0.00  0.00     0.049 A 
ATOM     14  C   UNL d   1       2.812   5.329   2.541  0.00  0.00     0.047 A 
ATOM     15  C   UNL d   1       1.268   5.690   8.082  0.00  0.00     0.110 A 
ATOM     16  C   UNL d   1       0.498   3.894   7.174  0.00  0.00     0.011 A 
ATOM     17  C   UNL d   1       1.873   3.797   2.658  0.00  0.00     0.105 A 
ATOM     18  C   UNL d   1       2.443   4.463   2.095  0.00  0.00     0.105 A 
ATOM     19  C   UNL d   1       0.675   5.002   8.676  0.00  0.00     0.102 A 
ATOM     20  C   UNL d   1       0.287   4.098   8.218  0.00  0.00     0.040 A 
ATOM     21  C   UNL d   1       2.004   3.184   1.104  0.00  0.00     0.352 A 
ENDROOT
BRANCH  15  22
ATOM     22  O   UNL d   1       1.631   6.526   8.494  0.00  0.00    -0.352 OA
ATOM     23  C   UNL d   1       1.107   7.376   8.443  0.00  0.00     0.210 C 
ENDBRANCH  15  22
BRANCH  19  24
ATOM     24  O   UNL d   1       0.487   5.200   9.637  0.00  0.00    -0.353 OA
ATOM     25  C   UNL d   1       0.024   4.521  10.207  0.00  0.00     0.210 C 
ENDBRANCH  19  24
TORSDOF 2
ENDMDL
MODEL 4
REMARK VINA RESULT:    -6.582     13.448     15.010
REMARK INTER + INTRA:          -4.342
REMARK INTER:                  -7.331
REMARK INTRA:                   2.989
REMARK UNBOUND:                 3.010
REMARK  2 active torsions:
REMARK  status: ('A' for Active; 'I' for Inactive)
REMARK    1  A    between atoms: O_3  and  C_17 
REMARK    2  A    between atoms: O_4  and  C_21 
ROOT
ATOM      1  O   UNL d   1      -3.171  -7.802   3.897  0.00  0.00    -0.323 OA
ATOM      2  O   UNL d   1      -2.747  -8.966   5.026  0.00  0.00    -0.323 OA
ATOM      3  N   UNL d   1       0.678  -8.929   1.790  0.00  0.00    -0.400 N 
ATOM      4  C   UNL d   1      -0.170  -8.411   1.901  0.00  0.00     0.117 A 
ATOM      5  C   UNL d   1      -0.447  -7.684   1.208  0.00  0.00     0.069 A 
ATOM      6  C   UNL d   1      -0.765  -8.587   2.685  0.00  0.00    -0.026 A 
ATOM      7  C   UNL d   1       0.931  -9.624   2.463  0.00  0.00     0.122 A 
ATOM      8  C   UNL d   1       1.307  -8.756   0.978  0.00  0.00     0.160 A 
ATOM      9  C   UNL d   1       0.336  -9.800   3.247  0.00  0.00     0.058 A 
ATOM     10  C   UNL d   1      -0.512  -9.282   3.358  0.00  0.00    -0.045 A 
ATOM     11  C   UNL d   1       0.168  -7.495   0.388  0.00  0.00    -0.045 A 
ATOM     12  C   UNL d   1       1.050  -8.034   0.273  0.00  0.00     0.002 A 
ATOM     13  C   UNL d   1      -1.645  -8.039   2.787  0.00  0.00     0.049 A 
ATOM     14  C   UNL d   1      -1.121  -9.476   4.180  0.00  0.00     0.047 A 
ATOM     15  C   UNL d   1       1.706  -7.855  -0.573  0.00  0.00     0.110 A 
ATOM     16  C   UNL d   1      -0.121  -6.738  -0.334  0.00  0.00     0.011 A 
ATOM     17  C   UNL d   1      -2.270  -8.217   3.601  0.00  0.00     0.105 A 
ATOM     18  C   UNL d   1      -2.006  -8.940   4.303  0.00  0.00     0.105 A 
ATOM     19  C   UNL d   1       1.439  -7.103  -1.308  0.00  0.00     0.102 A 
ATOM     20  C   UNL d   1       0.519  -6.540  -1.187  0.00  0.00     0.040 A 
ATOM     21  C   UNL d   1      -3.465  -8.264   4.776  0.00  0.00     0.352 A 
ENDROOT
BRANCH  15  22
ATOM     22  O   UNL d   1       2.552  -8.379  -0.675  0.00  0.00    -0.352 OA
ATOM     23  C   UNL d   1       3.407  -8.028  -0.293  0.00  0.00     0.210 C 
ENDBRANCH  15  22
BRANCH  19  24
ATOM     24  O   UNL d   1       2.036  -6.929  -2.091  0.00  0.00    -0.353 OA
ATOM     25  C   UNL d   1       1.771  -6.258  -2.783  0.00  0.00     0.210 C 
ENDBRANCH  19  24
TORSDOF 2
ENDMDL
MODEL 5
REMARK VINA RESULT:    -6.518     13.043     13.540
REMARK INTER + INTRA:          -4.271
REMARK INTER:                  -7.249
REMARK INTRA:                   2.979
REMARK UNBOUND:                 3.010
REMARK  2 active torsions:
REMARK  status: ('A' for Active; 'I' for Inactive)
REMARK    1  A    between atoms: O_3  and  C_17 
REMARK    2  A    between atoms: O_4  and  C_21 
ROOT
ATOM      1  O   UNL d   1       0.983  -6.603  -0.661  0.00  0.00    -0.323 OA
ATOM      2  O   UNL d   1       2.085  -7.865  -0.712  0.00  0.00    -0.323 OA
ATOM      3  N   UNL d   1      -0.907  -8.839   2.796  0.00  0.00    -0.400 N 
ATOM      4  C   UNL d   1      -0.831  -8.082   2.146  0.00  0.00     0.117 A 
ATOM      5  C   UNL d   1      -1.507  -7.291   2.165  0.00  0.00     0.069 A 
ATOM      6  C   UNL d   1      -0.097  -8.079   1.467  0.00  0.00    -0.026 A 
ATOM      7  C   UNL d   1      -0.250  -9.592   2.766  0.00  0.00     0.122 A 
ATOM      8  C   UNL d   1      -1.666  -8.856   3.509  0.00  0.00     0.160 A 
ATOM      9  C   UNL d   1       0.483  -9.589   2.086  0.00  0.00     0.058 A 
ATOM     10  C   UNL d   1       0.560  -8.833   1.436  0.00  0.00    -0.045 A 
ATOM     11  C   UNL d   1      -2.274  -7.287   2.871  0.00  0.00    -0.045 A 
ATOM     12  C   UNL d   1      -2.354  -8.074   3.547  0.00  0.00     0.002 A 
ATOM     13  C   UNL d   1      -0.030  -7.284   0.796  0.00  0.00     0.049 A 
ATOM     14  C   UNL d   1       1.329  -8.843   0.734  0.00  0.00     0.047 A 
ATOM     15  C   UNL d   1      -3.143  -8.093   4.290  0.00  0.00     0.110 A 
ATOM     16  C   UNL d   1      -2.979  -6.462   2.890  0.00  0.00     0.011 A 
ATOM     17  C   UNL d   1       0.731  -7.274   0.085  0.00  0.00     0.105 A 
ATOM     18  C   UNL d   1       1.415  -8.058   0.054  0.00  0.00     0.105 A 
ATOM     19  C   UNL d   1      -3.860  -7.279   4.330  0.00  0.00     0.102 A 
ATOM     20  C   UNL d   1      -3.777  -6.458   3.625  0.00  0.00     0.040 A 
ATOM     21  C   UNL d   1       1.818  -6.968  -1.153  0.00  0.00     0.352 A 
ENDROOT
BRANCH  15  22
ATOM     22  O   UNL d   1      -3.211  -8.854   4.935  0.00  0.00    -0.352 OA
ATOM     23  C   UNL d   1      -3.768  -9.653   4.710  0.00  0.00     0.210 C 
ENDBRANCH  15  22
BRANCH  19  24
ATOM     24  O   UNL d   1      -4.592  -7.285   5.010  0.00  0.00    -0.353 OA
ATOM     25  C   UNL d   1      -5.081  -6.441   5.228  0.00  0.00     0.210 C 
ENDBRANCH  19  24
TORSDOF 2
ENDMDL
