MODEL 1
REMARK VINA RESULT:    -9.872      0.000      0.000
REMARK INTER + INTRA:          -8.397
REMARK INTER:                 -11.874
REMARK INTRA:                   3.478
REMARK UNBOUND:                 3.495
REMARK  6 active torsions:
REMARK  status: ('A' for Active; 'I' for Inactive)
REMARK    1  A    between atoms: O_2  and  C_7 
REMARK    2  A    between atoms: O_3  and  C_13 
REMARK    3  A    between atoms: O_4  and  C_18 
REMARK    4  A    between atoms: O_5  and  C_19 
REMARK    5  A    between atoms: O_6  and  C_21 
REMARK    6  A    between atoms: C_8  and  C_12 
ROOT
ATOM      1  O   UNL d   1     -30.309 -14.499 -23.106  0.00  0.00    -0.338 OA
ATOM      2  C   UNL d   1     -31.281 -14.119 -24.489  0.00  0.00     0.156 A 
ATOM      3  C   UNL d   1     -31.123 -14.074 -23.503  0.00  0.00     0.191 A 
ATOM      4  C   UNL d   1     -30.625 -14.590 -25.079  0.00  0.00     0.079 A 
ATOM      5  C   UNL d   1     -29.811 -15.015 -24.683  0.00  0.00     0.011 A 
ATOM      6  C   UNL d   1     -29.653 -14.969 -23.696  0.00  0.00     0.081 A 
ATOM      7  C   UNL d   1     -29.137 -15.502 -25.310  0.00  0.00     0.077 A 
ATOM      8  C   UNL d   1     -28.810 -15.407 -23.269  0.00  0.00     0.074 A 
ATOM      9  C   UNL d   1     -28.287 -15.947 -24.904  0.00  0.00     0.073 A 
ATOM     10  C   UNL d   1     -28.123 -15.899 -23.877  0.00  0.00     0.071 A 
ENDROOT
BRANCH   3  11
ATOM     11  C   UNL d   1     -31.779 -13.603 -22.912  0.00  0.00    -0.024 A 
ATOM     12  C   UNL d   1     -31.733 -12.610 -22.807  0.00  0.00     0.049 A 
ATOM     13  C   UNL d   1     -32.389 -12.139 -22.217  0.00  0.00     0.099 A 
ATOM     14  C   UNL d   1     -33.091 -12.662 -21.732  0.00  0.00     0.098 A 
ATOM     15  C   UNL d   1     -33.136 -13.655 -21.838  0.00  0.00     0.040 A 
ATOM     16  C   UNL d   1     -32.480 -14.126 -22.428  0.00  0.00     0.013 A 
BRANCH  13  17
ATOM     17  O   UNL d   1     -32.344 -11.146 -22.111  0.00  0.00    -0.358 OA
ATOM     18  H   UNL d   1     -32.584 -10.876 -21.607  0.00  0.00     0.217 HD
ENDBRANCH  13  17
BRANCH  14  19
ATOM     19  O   UNL d   1     -33.746 -12.191 -21.142  0.00  0.00    -0.358 OA
ATOM     20  H   UNL d   1     -33.595 -11.650 -20.880  0.00  0.00     0.217 HD
ENDBRANCH  14  19
ENDBRANCH   3  11
BRANCH   2  21
ATOM     21  O   UNL d   1     -32.095 -13.694 -24.885  0.00  0.00    -0.392 OA
ATOM     22  H   UNL d   1     -32.443 -14.010 -25.290  0.00  0.00     0.210 HD
ENDBRANCH   2  21
BRANCH   7  23
ATOM     23  O   UNL d   1     -29.305 -15.541 -26.295  0.00  0.00    -0.360 OA
ATOM     24  H   UNL d   1     -29.871 -15.421 -26.517  0.00  0.00     0.217 HD
ENDBRANCH   7  23
BRANCH  10  25
ATOM     25  O   UNL d   1     -27.310 -16.323 -23.478  0.00  0.00    -0.361 OA
ATOM     26  H   UNL d   1     -26.761 -16.038 -23.515  0.00  0.00     0.217 HD
ENDBRANCH  10  25
TORSDOF 6
ENDMDL
MODEL 2
REMARK VINA RESULT:    -9.664      0.798      1.844
REMARK INTER + INTRA:          -8.146
REMARK INTER:                 -11.762
REMARK INTRA:                   3.617
REMARK UNBOUND:                 3.495
REMARK  6 active torsions:
REMARK  status: ('A' for Active; 'I' for Inactive)
REMARK    1  A    between atoms: O_2  and  C_7 
REMARK    2  A    between atoms: O_3  and  C_13 
REMARK    3  A    between atoms: O_4  and  C_18 
REMARK    4  A    between atoms: O_5  and  C_19 
REMARK    5  A    between atoms: O_6  and  C_21 
REMARK    6  A    between atoms: C_8  and  C_12 
ROOT
ATOM      1  O   UNL d   1     -30.647 -14.332 -23.823  0.00  0.00    -0.338 OA
ATOM      2  C   UNL d   1     -30.380 -14.768 -22.168  0.00  0.00     0.156 A 
ATOM      3  C   UNL d   1     -30.879 -14.239 -22.855  0.00  0.00     0.191 A 
ATOM      4  C   UNL d   1     -29.649 -15.390 -22.451  0.00  0.00     0.079 A 
ATOM      5  C   UNL d   1     -29.417 -15.482 -23.419  0.00  0.00     0.011 A 
ATOM      6  C   UNL d   1     -29.917 -14.953 -24.105  0.00  0.00     0.081 A 
ATOM      7  C   UNL d   1     -28.654 -16.133 -23.698  0.00  0.00     0.077 A 
ATOM      8  C   UNL d   1     -29.687 -15.039 -25.118  0.00  0.00     0.074 A 
ATOM      9  C   UNL d   1     -28.407 -16.235 -24.705  0.00  0.00     0.073 A 
ATOM     10  C   UNL d   1     -28.927 -15.684 -25.419  0.00  0.00     0.071 A 
ENDROOT
BRANCH   3  11
ATOM     11  C   UNL d   1     -31.610 -13.618 -22.573  0.00  0.00    -0.024 A 
ATOM     12  C   UNL d   1     -31.460 -12.629 -22.591  0.00  0.00     0.049 A 
ATOM     13  C   UNL d   1     -32.191 -12.008 -22.309  0.00  0.00     0.099 A 
ATOM     14  C   UNL d   1     -33.071 -12.375 -22.008  0.00  0.00     0.098 A 
ATOM     15  C   UNL d   1     -33.221 -13.363 -21.990  0.00  0.00     0.040 A 
ATOM     16  C   UNL d   1     -32.490 -13.985 -22.272  0.00  0.00     0.013 A 
BRANCH  13  17
ATOM     17  O   UNL d   1     -32.042 -11.019 -22.328  0.00  0.00    -0.358 OA
ATOM     18  H   UNL d   1     -31.847 -10.725 -21.818  0.00  0.00     0.217 HD
ENDBRANCH  13  17
BRANCH  14  19
ATOM     19  O   UNL d   1     -33.802 -11.753 -21.726  0.00  0.00    -0.358 OA
ATOM     20  H   UNL d   1     -33.669 -11.254 -21.384  0.00  0.00     0.217 HD
ENDBRANCH  14  19
ENDBRANCH   3  11
BRANCH   2  21
ATOM     21  O   UNL d   1     -30.611 -14.676 -21.200  0.00  0.00    -0.392 OA
ATOM     22  H   UNL d   1     -30.507 -14.140 -20.906  0.00  0.00     0.210 HD
ENDBRANCH   2  21
BRANCH   7  23
ATOM     23  O   UNL d   1     -28.162 -16.658 -23.003  0.00  0.00    -0.360 OA
ATOM     24  H   UNL d   1     -28.476 -16.997 -22.591  0.00  0.00     0.217 HD
ENDBRANCH   7  23
BRANCH  10  25
ATOM     25  O   UNL d   1     -28.698 -15.774 -26.388  0.00  0.00    -0.361 OA
ATOM     26  H   UNL d   1     -28.108 -15.736 -26.573  0.00  0.00     0.217 HD
ENDBRANCH  10  25
TORSDOF 6
ENDMDL
MODEL 3
REMARK VINA RESULT:    -9.219     27.591     29.110
REMARK INTER + INTRA:          -7.610
REMARK INTER:                 -11.215
REMARK INTRA:                   3.605
REMARK UNBOUND:                 3.495
REMARK  6 active torsions:
REMARK  status: ('A' for Active; 'I' for Inactive)
REMARK    1  A    between atoms: O_2  and  C_7 
REMARK    2  A    between atoms: O_3  and  C_13 
REMARK    3  A    between atoms: O_4  and  C_18 
REMARK    4  A    between atoms: O_5  and  C_19 
REMARK    5  A    between atoms: O_6  and  C_21 
REMARK    6  A    between atoms: C_8  and  C_12 
ROOT
ATOM      1  O   UNL d   1     -43.820 -34.272  -7.855  0.00  0.00    -0.338 OA
ATOM      2  C   UNL d   1     -45.373 -33.804  -7.246  0.00  0.00     0.156 A 
ATOM      3  C   UNL d   1     -44.766 -33.992  -8.019  0.00  0.00     0.191 A 
ATOM      4  C   UNL d   1     -45.033 -33.896  -6.310  0.00  0.00     0.079 A 
ATOM      5  C   UNL d   1     -44.087 -34.176  -6.147  0.00  0.00     0.011 A 
ATOM      6  C   UNL d   1     -43.481 -34.364  -6.919  0.00  0.00     0.081 A 
ATOM      7  C   UNL d   1     -43.747 -34.267  -5.167  0.00  0.00     0.077 A 
ATOM      8  C   UNL d   1     -42.493 -34.657  -6.765  0.00  0.00     0.074 A 
ATOM      9  C   UNL d   1     -42.763 -34.559  -4.989  0.00  0.00     0.073 A 
ATOM     10  C   UNL d   1     -42.132 -34.754  -5.793  0.00  0.00     0.071 A 
ENDROOT
BRANCH   3  11
ATOM     11  C   UNL d   1     -45.106 -33.900  -8.955  0.00  0.00    -0.024 A 
ATOM     12  C   UNL d   1     -45.748 -34.573  -9.322  0.00  0.00     0.049 A 
ATOM     13  C   UNL d   1     -46.087 -34.481 -10.258  0.00  0.00     0.099 A 
ATOM     14  C   UNL d   1     -45.785 -33.716 -10.827  0.00  0.00     0.098 A 
ATOM     15  C   UNL d   1     -45.144 -33.043 -10.459  0.00  0.00     0.040 A 
ATOM     16  C   UNL d   1     -44.804 -33.135  -9.523  0.00  0.00     0.013 A 
BRANCH  13  17
ATOM     17  O   UNL d   1     -46.729 -35.154 -10.626  0.00  0.00    -0.358 OA
ATOM     18  H   UNL d   1     -47.057 -35.024 -11.136  0.00  0.00     0.217 HD
ENDBRANCH  13  17
BRANCH  14  19
ATOM     19  O   UNL d   1     -46.125 -33.624 -11.763  0.00  0.00    -0.358 OA
ATOM     20  H   UNL d   1     -46.680 -33.368 -11.868  0.00  0.00     0.217 HD
ENDBRANCH  14  19
ENDBRANCH   3  11
BRANCH   2  21
ATOM     21  O   UNL d   1     -46.318 -33.524  -7.409  0.00  0.00    -0.392 OA
ATOM     22  H   UNL d   1     -46.764 -33.692  -7.013  0.00  0.00     0.210 HD
ENDBRANCH   2  21
BRANCH   7  23
ATOM     23  O   UNL d   1     -44.362 -34.077  -4.402  0.00  0.00    -0.360 OA
ATOM     24  H   UNL d   1     -44.484 -33.491  -4.241  0.00  0.00     0.217 HD
ENDBRANCH   7  23
BRANCH  10  25
ATOM     25  O   UNL d   1     -41.185 -35.035  -5.633  0.00  0.00    -0.361 OA
ATOM     26  H   UNL d   1     -40.719 -34.664  -5.802  0.00  0.00     0.217 HD
ENDBRANCH  10  25
TORSDOF 6
ENDMDL
MODEL 4
REMARK VINA RESULT:    -9.185     36.482     37.802
REMARK INTER + INTRA:          -7.569
REMARK INTER:                 -11.044
REMARK INTRA:                   3.476
REMARK UNBOUND:                 3.495
REMARK  6 active torsions:
REMARK  status: ('A' for Active; 'I' for Inactive)
REMARK    1  A    between atoms: O_2  and  C_7 
REMARK    2  A    between atoms: O_3  and  C_13 
REMARK    3  A    between atoms: O_4  and  C_18 
REMARK    4  A    between atoms: O_5  and  C_19 
REMARK    5  A    between atoms: O_6  and  C_21 
REMARK    6  A    between atoms: C_8  and  C_12 
ROOT
ATOM      1  O   UNL d   1     -16.627 -16.474  10.718  0.00  0.00    -0.338 OA
ATOM      2  C   UNL d   1     -17.126 -17.978  11.420  0.00  0.00     0.156 A 
ATOM      3  C   UNL d   1     -16.400 -17.378  11.082  0.00  0.00     0.191 A 
ATOM      4  C   UNL d   1     -18.078 -17.674  11.394  0.00  0.00     0.079 A 
ATOM      5  C   UNL d   1     -18.305 -16.770  11.030  0.00  0.00     0.011 A 
ATOM      6  C   UNL d   1     -17.579 -16.171  10.692  0.00  0.00     0.081 A 
ATOM      7  C   UNL d   1     -19.301 -16.467  11.010  0.00  0.00     0.077 A 
ATOM      8  C   UNL d   1     -17.800 -15.227  10.311  0.00  0.00     0.074 A 
ATOM      9  C   UNL d   1     -19.545 -15.527  10.632  0.00  0.00     0.073 A 
ATOM     10  C   UNL d   1     -18.790 -14.903  10.281  0.00  0.00     0.071 A 
ENDROOT
BRANCH   3  11
ATOM     11  C   UNL d   1     -15.448 -17.682  11.108  0.00  0.00    -0.024 A 
ATOM     12  C   UNL d   1     -14.866 -17.439  11.884  0.00  0.00     0.049 A 
ATOM     13  C   UNL d   1     -13.914 -17.743  11.910  0.00  0.00     0.099 A 
ATOM     14  C   UNL d   1     -13.543 -18.290  11.159  0.00  0.00     0.098 A 
ATOM     15  C   UNL d   1     -14.125 -18.532  10.383  0.00  0.00     0.040 A 
ATOM     16  C   UNL d   1     -15.077 -18.229  10.357  0.00  0.00     0.013 A 
BRANCH  13  17
ATOM     17  O   UNL d   1     -13.333 -17.500  12.686  0.00  0.00    -0.358 OA
ATOM     18  H   UNL d   1     -13.578 -17.221  13.182  0.00  0.00     0.217 HD
ENDBRANCH  13  17
BRANCH  14  19
ATOM     19  O   UNL d   1     -12.591 -18.594  11.185  0.00  0.00    -0.358 OA
ATOM     20  H   UNL d   1     -12.265 -18.636  10.659  0.00  0.00     0.217 HD
ENDBRANCH  14  19
ENDBRANCH   3  11
BRANCH   2  21
ATOM     21  O   UNL d   1     -16.899 -18.881  11.783  0.00  0.00    -0.392 OA
ATOM     22  H   UNL d   1     -17.308 -19.345  11.739  0.00  0.00     0.210 HD
ENDBRANCH   2  21
BRANCH   7  23
ATOM     23  O   UNL d   1     -20.018 -17.075  11.350  0.00  0.00    -0.360 OA
ATOM     24  H   UNL d   1     -20.301 -17.468  10.963  0.00  0.00     0.217 HD
ENDBRANCH   7  23
BRANCH  10  25
ATOM     25  O   UNL d   1     -19.013 -13.999   9.916  0.00  0.00    -0.361 OA
ATOM     26  H   UNL d   1     -19.170 -13.540  10.301  0.00  0.00     0.217 HD
ENDBRANCH  10  25
TORSDOF 6
ENDMDL
MODEL 5
REMARK VINA RESULT:    -9.091     12.325     13.574
REMARK INTER + INTRA:          -7.455
REMARK INTER:                 -11.013
REMARK INTRA:                   3.558
REMARK UNBOUND:                 3.495
REMARK  6 active torsions:
REMARK  status: ('A' for Active; 'I' for Inactive)
REMARK    1  A    between atoms: O_2  and  C_7 
REMARK    2  A    between atoms: O_3  and  C_13 
REMARK    3  A    between atoms: O_4  and  C_18 
REMARK    4  A    between atoms: O_5  and  C_19 
REMARK    5  A    between atoms: O_6  and  C_21 
REMARK    6  A    between atoms: C_8  and  C_12 
ROOT
ATOM      1  O   UNL d   1     -33.885 -21.225 -11.936  0.00  0.00    -0.338 OA
ATOM      2  C   UNL d   1     -33.686 -19.681 -12.697  0.00  0.00     0.156 A 
ATOM      3  C   UNL d   1     -33.932 -20.227 -11.895  0.00  0.00     0.191 A 
ATOM      4  C   UNL d   1     -33.393 -20.134 -13.539  0.00  0.00     0.079 A 
ATOM      5  C   UNL d   1     -33.345 -21.132 -13.579  0.00  0.00     0.011 A 
ATOM      6  C   UNL d   1     -33.591 -21.677 -12.778  0.00  0.00     0.081 A 
ATOM      7  C   UNL d   1     -33.038 -21.589 -14.463  0.00  0.00     0.077 A 
ATOM      8  C   UNL d   1     -33.547 -22.718 -12.805  0.00  0.00     0.074 A 
ATOM      9  C   UNL d   1     -32.986 -22.628 -14.513  0.00  0.00     0.073 A 
ATOM     10  C   UNL d   1     -33.243 -23.196 -13.679  0.00  0.00     0.071 A 
ENDROOT
BRANCH   3  11
ATOM     11  C   UNL d   1     -34.225 -19.774 -11.053  0.00  0.00    -0.024 A 
ATOM     12  C   UNL d   1     -35.149 -19.398 -10.984  0.00  0.00     0.049 A 
ATOM     13  C   UNL d   1     -35.443 -18.945 -10.141  0.00  0.00     0.099 A 
ATOM     14  C   UNL d   1     -34.812 -18.869  -9.369  0.00  0.00     0.098 A 
ATOM     15  C   UNL d   1     -33.888 -19.245  -9.439  0.00  0.00     0.040 A 
ATOM     16  C   UNL d   1     -33.595 -19.698 -10.281  0.00  0.00     0.013 A 
BRANCH  13  17
ATOM     17  O   UNL d   1     -36.366 -18.569 -10.072  0.00  0.00    -0.358 OA
ATOM     18  H   UNL d   1     -36.700 -18.660  -9.557  0.00  0.00     0.217 HD
ENDBRANCH  13  17
BRANCH  14  19
ATOM     19  O   UNL d   1     -35.105 -18.416  -8.527  0.00  0.00    -0.358 OA
ATOM     20  H   UNL d   1     -35.659 -18.139  -8.501  0.00  0.00     0.217 HD
ENDBRANCH  14  19
ENDBRANCH   3  11
BRANCH   2  21
ATOM     21  O   UNL d   1     -33.733 -18.683 -12.656  0.00  0.00    -0.392 OA
ATOM     22  H   UNL d   1     -34.185 -18.382 -12.955  0.00  0.00     0.210 HD
ENDBRANCH   2  21
BRANCH   7  23
ATOM     23  O   UNL d   1     -32.794 -21.034 -15.258  0.00  0.00    -0.360 OA
ATOM     24  H   UNL d   1     -32.356 -21.229 -15.650  0.00  0.00     0.217 HD
ENDBRANCH   7  23
BRANCH  10  25
ATOM     25  O   UNL d   1     -33.196 -24.194 -13.716  0.00  0.00    -0.361 OA
ATOM     26  H   UNL d   1     -33.496 -24.535 -13.295  0.00  0.00     0.217 HD
ENDBRANCH  10  25
TORSDOF 6
ENDMDL
