MODEL 1
REMARK VINA RESULT:    -2.865      0.000      0.000
REMARK INTER + INTRA:          -2.865
REMARK INTER:                  -2.865
REMARK INTRA:                   0.000
REMARK UNBOUND:                 0.000
REMARK  0 active torsions:
REMARK  status: ('A' for Active; 'I' for Inactive)
ROOT
ATOM      1  O   UNL d   1     -19.556 -15.273  10.690  0.00  0.00    -0.648 OA
ATOM      2  O   UNL d   1     -17.877 -15.117  10.292  0.00  0.00    -0.648 OA
ATOM      3  C   UNL d   1     -18.863 -13.702  10.462  0.00  0.00     0.129 C 
ATOM      4  C   UNL d   1     -18.765 -14.697  10.481  0.00  0.00     0.168 C 
ENDROOT
TORSDOF 0
ENDMDL
MODEL 2
REMARK VINA RESULT:    -2.842     61.619     61.943
REMARK INTER + INTRA:          -2.842
REMARK INTER:                  -2.842
REMARK INTRA:                   0.000
REMARK UNBOUND:                 0.000
REMARK  0 active torsions:
REMARK  status: ('A' for Active; 'I' for Inactive)
ROOT
ATOM      1  O   UNL d   1     -46.746  34.753 -14.437  0.00  0.00    -0.648 OA
ATOM      2  O   UNL d   1     -45.887  36.206 -14.048  0.00  0.00    -0.648 OA
ATOM      3  C   UNL d   1     -45.060  34.684 -14.048  0.00  0.00     0.129 C 
ATOM      4  C   UNL d   1     -45.897  35.214 -14.177  0.00  0.00     0.168 C 
ENDROOT
TORSDOF 0
ENDMDL
MODEL 3
REMARK VINA RESULT:    -2.840     45.704     46.054
REMARK INTER + INTRA:          -2.840
REMARK INTER:                  -2.840
REMARK INTRA:                   0.000
REMARK UNBOUND:                 0.000
REMARK  0 active torsions:
REMARK  status: ('A' for Active; 'I' for Inactive)
ROOT
ATOM      1  O   UNL d   1     -40.519  24.198  -1.731  0.00  0.00    -0.648 OA
ATOM      2  O   UNL d   1     -42.148  23.742  -2.105  0.00  0.00    -0.648 OA
ATOM      3  C   UNL d   1     -41.203  22.770  -1.027  0.00  0.00     0.129 C 
ATOM      4  C   UNL d   1     -41.290  23.570  -1.621  0.00  0.00     0.168 C 
ENDROOT
TORSDOF 0
ENDMDL
MODEL 4
REMARK VINA RESULT:    -2.811     17.487     17.695
REMARK INTER + INTRA:          -2.811
REMARK INTER:                  -2.811
REMARK INTRA:                   0.000
REMARK UNBOUND:                 0.000
REMARK  0 active torsions:
REMARK  status: ('A' for Active; 'I' for Inactive)
ROOT
ATOM      1  O   UNL d   1     -26.528  -5.742  -1.734  0.00  0.00    -0.648 OA
ATOM      2  O   UNL d   1     -25.310  -4.576  -2.130  0.00  0.00    -0.648 OA
ATOM      3  C   UNL d   1     -26.938  -4.344  -2.671  0.00  0.00     0.129 C 
ATOM      4  C   UNL d   1     -26.259  -4.887  -2.178  0.00  0.00     0.168 C 
ENDROOT
TORSDOF 0
ENDMDL
MODEL 5
REMARK VINA RESULT:    -2.772     38.454     38.797
REMARK INTER + INTRA:          -2.772
REMARK INTER:                  -2.772
REMARK INTRA:                   0.000
REMARK UNBOUND:                 0.000
REMARK  0 active torsions:
REMARK  status: ('A' for Active; 'I' for Inactive)
ROOT
ATOM      1  O   UNL d   1     -46.291 -33.789 -10.671  0.00  0.00    -0.648 OA
ATOM      2  O   UNL d   1     -44.685 -33.244 -10.319  0.00  0.00    -0.648 OA
ATOM      3  C   UNL d   1     -45.833 -32.157 -11.026  0.00  0.00     0.129 C 
ATOM      4  C   UNL d   1     -45.603 -33.063 -10.672  0.00  0.00     0.168 C 
ENDROOT
TORSDOF 0
ENDMDL
