MODEL 1
REMARK VINA RESULT:    -6.968      0.000      0.000
REMARK INTER + INTRA:          -7.683
REMARK INTER:                  -8.665
REMARK INTRA:                   0.982
REMARK UNBOUND:                 1.117
REMARK  6 active torsions:
REMARK  status: ('A' for Active; 'I' for Inactive)
REMARK    1  A    between atoms: O_1  and  C_8 
REMARK    2  A    between atoms: O_2  and  C_9 
REMARK    3  A    between atoms: O_3  and  C_13 
REMARK    4  A    between atoms: C_5  and  C_11 
REMARK    5  A    between atoms: C_11  and  C_12 
REMARK    6  A    between atoms: C_12  and  C_13 
ROOT
ATOM      1  C   UNL d   1     -31.869 -13.582 -22.291  0.00  0.00    -0.033 A 
ATOM      2  C   UNL d   1     -31.639 -12.643 -22.545  0.00  0.00     0.050 A 
ATOM      3  C   UNL d   1     -32.741 -13.780 -21.843  0.00  0.00     0.014 A 
ATOM      4  C   UNL d   1     -32.281 -11.901 -22.352  0.00  0.00     0.099 A 
ATOM      5  C   UNL d   1     -33.153 -12.099 -21.904  0.00  0.00     0.098 A 
ATOM      6  C   UNL d   1     -33.383 -13.038 -21.649  0.00  0.00     0.040 A 
ENDROOT
BRANCH   1   7
ATOM      7  C   UNL d   1     -31.226 -14.324 -22.485  0.00  0.00     0.018 C 
BRANCH   7   8
ATOM      8  C   UNL d   1     -30.398 -14.424 -21.934  0.00  0.00     0.082 C 
BRANCH   8   9
ATOM      9  C   UNL d   1     -29.899 -15.291 -21.934  0.00  0.00     0.165 C 
ATOM     10  O   UNL d   1     -29.534 -15.657 -22.790  0.00  0.00    -0.647 OA
BRANCH   9  11
ATOM     11  O   UNL d   1     -29.765 -15.791 -21.079  0.00  0.00    -0.773 OA
ATOM     12  H   UNL d   1     -29.687 -15.481 -20.548  0.00  0.00     0.167 HD
ENDBRANCH   9  11
ENDBRANCH   8   9
ENDBRANCH   7   8
ENDBRANCH   1   7
BRANCH   4  13
ATOM     13  O   UNL d   1     -32.052 -10.962 -22.606  0.00  0.00    -0.358 OA
ATOM     14  H   UNL d   1     -31.467 -10.761 -22.556  0.00  0.00     0.217 HD
ENDBRANCH   4  13
BRANCH   5  15
ATOM     15  O   UNL d   1     -33.796 -11.357 -21.710  0.00  0.00    -0.358 OA
ATOM     16  H   UNL d   1     -34.172 -11.393 -21.219  0.00  0.00     0.217 HD
ENDBRANCH   5  15
TORSDOF 6
ENDMDL
MODEL 2
REMARK VINA RESULT:    -6.847     21.637     22.357
REMARK INTER + INTRA:          -7.531
REMARK INTER:                  -8.736
REMARK INTRA:                   1.205
REMARK UNBOUND:                 1.117
REMARK  6 active torsions:
REMARK  status: ('A' for Active; 'I' for Inactive)
REMARK    1  A    between atoms: O_1  and  C_8 
REMARK    2  A    between atoms: O_2  and  C_9 
REMARK    3  A    between atoms: O_3  and  C_13 
REMARK    4  A    between atoms: C_5  and  C_11 
REMARK    5  A    between atoms: C_11  and  C_12 
REMARK    6  A    between atoms: C_12  and  C_13 
ROOT
ATOM      1  C   UNL d   1     -35.301 -15.896  -0.295  0.00  0.00    -0.033 A 
ATOM      2  C   UNL d   1     -36.266 -16.124  -0.160  0.00  0.00     0.050 A 
ATOM      3  C   UNL d   1     -34.705 -15.758   0.496  0.00  0.00     0.014 A 
ATOM      4  C   UNL d   1     -36.634 -16.214   0.765  0.00  0.00     0.099 A 
ATOM      5  C   UNL d   1     -36.037 -16.077   1.556  0.00  0.00     0.098 A 
ATOM      6  C   UNL d   1     -35.073 -15.849   1.422  0.00  0.00     0.040 A 
ENDROOT
BRANCH   1   7
ATOM      7  C   UNL d   1     -34.933 -15.805  -1.220  0.00  0.00     0.018 C 
BRANCH   7   8
ATOM      8  C   UNL d   1     -35.548 -15.842  -2.008  0.00  0.00     0.082 C 
BRANCH   8   9
ATOM      9  C   UNL d   1     -35.236 -15.515  -2.900  0.00  0.00     0.165 C 
ATOM     10  O   UNL d   1     -35.893 -15.134  -3.550  0.00  0.00    -0.647 OA
BRANCH   9  11
ATOM     11  O   UNL d   1     -34.268 -15.570  -3.143  0.00  0.00    -0.773 OA
ATOM     12  H   UNL d   1     -33.836 -15.387  -2.737  0.00  0.00     0.167 HD
ENDBRANCH   9  11
ENDBRANCH   8   9
ENDBRANCH   7   8
ENDBRANCH   1   7
BRANCH   4  13
ATOM     13  O   UNL d   1     -37.598 -16.442   0.900  0.00  0.00    -0.358 OA
ATOM     14  H   UNL d   1     -38.039 -16.082   0.654  0.00  0.00     0.217 HD
ENDBRANCH   4  13
BRANCH   5  15
ATOM     15  O   UNL d   1     -36.405 -16.167   2.482  0.00  0.00    -0.358 OA
ATOM     16  H   UNL d   1     -37.001 -16.320   2.565  0.00  0.00     0.217 HD
ENDBRANCH   5  15
TORSDOF 6
ENDMDL
MODEL 3
REMARK VINA RESULT:    -6.787     27.200     28.206
REMARK INTER + INTRA:          -7.454
REMARK INTER:                  -8.406
REMARK INTRA:                   0.952
REMARK UNBOUND:                 1.117
REMARK  6 active torsions:
REMARK  status: ('A' for Active; 'I' for Inactive)
REMARK    1  A    between atoms: O_1  and  C_8 
REMARK    2  A    between atoms: O_2  and  C_9 
REMARK    3  A    between atoms: O_3  and  C_13 
REMARK    4  A    between atoms: C_5  and  C_11 
REMARK    5  A    between atoms: C_11  and  C_12 
REMARK    6  A    between atoms: C_12  and  C_13 
ROOT
ATOM      1  C   UNL d   1     -44.962 -34.124  -8.832  0.00  0.00    -0.033 A 
ATOM      2  C   UNL d   1     -45.803 -34.558  -9.155  0.00  0.00     0.050 A 
ATOM      3  C   UNL d   1     -44.441 -33.526  -9.441  0.00  0.00     0.014 A 
ATOM      4  C   UNL d   1     -46.123 -34.394 -10.088  0.00  0.00     0.099 A 
ATOM      5  C   UNL d   1     -45.603 -33.796 -10.697  0.00  0.00     0.098 A 
ATOM      6  C   UNL d   1     -44.762 -33.362 -10.374  0.00  0.00     0.040 A 
ENDROOT
BRANCH   1   7
ATOM      7  C   UNL d   1     -44.642 -34.289  -7.899  0.00  0.00     0.018 C 
BRANCH   7   8
ATOM      8  C   UNL d   1     -45.153 -33.921  -7.122  0.00  0.00     0.082 C 
BRANCH   8   9
ATOM      9  C   UNL d   1     -44.780 -33.994  -6.197  0.00  0.00     0.165 C 
ATOM     10  O   UNL d   1     -44.715 -34.888  -5.753  0.00  0.00    -0.647 OA
BRANCH   9  11
ATOM     11  O   UNL d   1     -44.471 -33.173  -5.717  0.00  0.00    -0.773 OA
ATOM     12  H   UNL d   1     -44.873 -32.718  -5.592  0.00  0.00     0.167 HD
ENDBRANCH   9  11
ENDBRANCH   8   9
ENDBRANCH   7   8
ENDBRANCH   1   7
BRANCH   4  13
ATOM     13  O   UNL d   1     -46.964 -34.828 -10.412  0.00  0.00    -0.358 OA
ATOM     14  H   UNL d   1     -47.039 -35.441 -10.354  0.00  0.00     0.217 HD
ENDBRANCH   4  13
BRANCH   5  15
ATOM     15  O   UNL d   1     -45.923 -33.632 -11.630  0.00  0.00    -0.358 OA
ATOM     16  H   UNL d   1     -46.518 -33.727 -11.775  0.00  0.00     0.217 HD
ENDBRANCH   5  15
TORSDOF 6
ENDMDL
MODEL 4
REMARK VINA RESULT:    -6.760     35.053     36.376
REMARK INTER + INTRA:          -7.421
REMARK INTER:                  -8.426
REMARK INTRA:                   1.005
REMARK UNBOUND:                 1.117
REMARK  6 active torsions:
REMARK  status: ('A' for Active; 'I' for Inactive)
REMARK    1  A    between atoms: O_1  and  C_8 
REMARK    2  A    between atoms: O_2  and  C_9 
REMARK    3  A    between atoms: O_3  and  C_13 
REMARK    4  A    between atoms: C_5  and  C_11 
REMARK    5  A    between atoms: C_11  and  C_12 
REMARK    6  A    between atoms: C_12  and  C_13 
ROOT
ATOM      1  C   UNL d   1     -17.669 -16.723  11.056  0.00  0.00    -0.033 A 
ATOM      2  C   UNL d   1     -18.310 -17.490  11.087  0.00  0.00     0.050 A 
ATOM      3  C   UNL d   1     -16.793 -16.783  11.534  0.00  0.00     0.014 A 
ATOM      4  C   UNL d   1     -18.073 -18.318  11.597  0.00  0.00     0.099 A 
ATOM      5  C   UNL d   1     -17.197 -18.377  12.075  0.00  0.00     0.098 A 
ATOM      6  C   UNL d   1     -16.557 -17.610  12.043  0.00  0.00     0.040 A 
ENDROOT
BRANCH   1   7
ATOM      7  C   UNL d   1     -17.906 -15.896  10.546  0.00  0.00     0.018 C 
BRANCH   7   8
ATOM      8  C   UNL d   1     -18.537 -15.228  10.941  0.00  0.00     0.082 C 
BRANCH   8   9
ATOM      9  C   UNL d   1     -18.868 -14.465  10.386  0.00  0.00     0.165 C 
ATOM     10  O   UNL d   1     -18.536 -13.538  10.563  0.00  0.00    -0.647 OA
BRANCH   9  11
ATOM     11  O   UNL d   1     -19.532 -14.628   9.656  0.00  0.00    -0.773 OA
ATOM     12  H   UNL d   1     -20.014 -15.005   9.754  0.00  0.00     0.167 HD
ENDBRANCH   9  11
ENDBRANCH   8   9
ENDBRANCH   7   8
ENDBRANCH   1   7
BRANCH   4  13
ATOM     13  O   UNL d   1     -18.713 -19.085  11.629  0.00  0.00    -0.358 OA
ATOM     14  H   UNL d   1     -19.070 -19.212  11.138  0.00  0.00     0.217 HD
ENDBRANCH   4  13
BRANCH   5  15
ATOM     15  O   UNL d   1     -16.961 -19.205  12.585  0.00  0.00    -0.358 OA
ATOM     16  H   UNL d   1     -17.347 -19.423  13.018  0.00  0.00     0.217 HD
ENDBRANCH   5  15
TORSDOF 6
ENDMDL
MODEL 5
REMARK VINA RESULT:    -6.738     18.336     20.012
REMARK INTER + INTRA:          -7.394
REMARK INTER:                  -8.414
REMARK INTRA:                   1.021
REMARK UNBOUND:                 1.117
REMARK  6 active torsions:
REMARK  status: ('A' for Active; 'I' for Inactive)
REMARK    1  A    between atoms: O_1  and  C_8 
REMARK    2  A    between atoms: O_2  and  C_9 
REMARK    3  A    between atoms: O_3  and  C_13 
REMARK    4  A    between atoms: C_5  and  C_11 
REMARK    5  A    between atoms: C_11  and  C_12 
REMARK    6  A    between atoms: C_12  and  C_13 
ROOT
ATOM      1  C   UNL d   1     -46.289 -12.166  -8.541  0.00  0.00    -0.033 A 
ATOM      2  C   UNL d   1     -46.669 -12.509  -9.401  0.00  0.00     0.050 A 
ATOM      3  C   UNL d   1     -45.564 -11.478  -8.555  0.00  0.00     0.014 A 
ATOM      4  C   UNL d   1     -46.324 -12.163 -10.273  0.00  0.00     0.099 A 
ATOM      5  C   UNL d   1     -45.599 -11.475 -10.286  0.00  0.00     0.098 A 
ATOM      6  C   UNL d   1     -45.218 -11.132  -9.427  0.00  0.00     0.040 A 
ENDROOT
BRANCH   1   7
ATOM      7  C   UNL d   1     -46.634 -12.512  -7.669  0.00  0.00     0.018 C 
BRANCH   7   8
ATOM      8  C   UNL d   1     -46.083 -13.148  -7.130  0.00  0.00     0.082 C 
BRANCH   8   9
ATOM      9  C   UNL d   1     -46.510 -13.693  -6.408  0.00  0.00     0.165 C 
ATOM     10  O   UNL d   1     -47.214 -13.286  -5.825  0.00  0.00    -0.647 OA
BRANCH   9  11
ATOM     11  O   UNL d   1     -46.232 -14.643  -6.268  0.00  0.00    -0.773 OA
ATOM     12  H   UNL d   1     -45.780 -14.888  -6.614  0.00  0.00     0.167 HD
ENDBRANCH   9  11
ENDBRANCH   8   9
ENDBRANCH   7   8
ENDBRANCH   1   7
BRANCH   4  13
ATOM     13  O   UNL d   1     -46.704 -12.505 -11.132  0.00  0.00    -0.358 OA
ATOM     14  H   UNL d   1     -46.673 -12.158 -11.645  0.00  0.00     0.217 HD
ENDBRANCH   4  13
BRANCH   5  15
ATOM     15  O   UNL d   1     -45.253 -11.129 -11.159  0.00  0.00    -0.358 OA
ATOM     16  H   UNL d   1     -45.159 -11.519 -11.631  0.00  0.00     0.217 HD
ENDBRANCH   5  15
TORSDOF 6
ENDMDL
