MODEL 1
REMARK VINA RESULT:    -7.005      0.000      0.000
REMARK INTER + INTRA:          -7.665
REMARK INTER:                  -8.604
REMARK INTRA:                   0.939
REMARK UNBOUND:                 1.183
REMARK  6 active torsions:
REMARK  status: ('A' for Active; 'I' for Inactive)
REMARK    1  A    between atoms: O_1  and  C_12 
REMARK    2  A    between atoms: O_1  and  C_13 
REMARK    3  A    between atoms: O_2  and  C_9 
REMARK    4  A    between atoms: O_3  and  C_10 
REMARK    5  A    between atoms: O_4  and  C_11 
REMARK    6  A    between atoms: C_6  and  C_12 
ROOT
ATOM      1  C   UNL d   1     -31.488  -2.904 -18.648  0.00  0.00     0.044 A 
ATOM      2  C   UNL d   1     -32.487  -2.883 -18.678  0.00  0.00     0.057 A 
ATOM      3  C   UNL d   1     -30.958  -2.663 -19.461  0.00  0.00     0.057 A 
ATOM      4  C   UNL d   1     -31.427  -2.402 -20.304  0.00  0.00     0.102 A 
ATOM      5  C   UNL d   1     -32.956  -2.622 -19.522  0.00  0.00     0.102 A 
ATOM      6  C   UNL d   1     -32.426  -2.381 -20.335  0.00  0.00     0.132 A 
ENDROOT
BRANCH   1   7
ATOM      7  C   UNL d   1     -31.019  -3.165 -17.804  0.00  0.00     0.293 C 
ATOM      8  O   UNL d   1     -30.921  -2.504 -17.061  0.00  0.00    -0.259 OA
BRANCH   7   9
ATOM      9  O   UNL d   1     -30.648  -4.089 -17.704  0.00  0.00    -0.318 OA
BRANCH   9  10
ATOM     10  C   UNL d   1     -30.592  -4.510 -16.799  0.00  0.00     0.174 C 
ATOM     11  C   UNL d   1     -30.295  -5.460 -16.707  0.00  0.00     0.034 C 
ENDBRANCH   9  10
ENDBRANCH   7   9
ENDBRANCH   1   7
BRANCH   5  12
ATOM     12  O   UNL d   1     -33.956  -2.601 -19.553  0.00  0.00    -0.358 OA
ATOM     13  H   UNL d   1     -34.280  -2.493 -19.035  0.00  0.00     0.217 HD
ENDBRANCH   5  12
BRANCH   4  14
ATOM     14  O   UNL d   1     -30.897  -2.161 -21.117  0.00  0.00    -0.358 OA
ATOM     15  H   UNL d   1     -30.286  -2.267 -21.132  0.00  0.00     0.217 HD
ENDBRANCH   4  14
BRANCH   6  16
ATOM     16  O   UNL d   1     -32.895  -2.119 -21.178  0.00  0.00    -0.356 OA
ATOM     17  H   UNL d   1     -32.975  -1.520 -21.316  0.00  0.00     0.218 HD
ENDBRANCH   6  16
TORSDOF 6
ENDMDL
MODEL 2
REMARK VINA RESULT:    -6.984     34.138     35.595
REMARK INTER + INTRA:          -7.638
REMARK INTER:                  -8.531
REMARK INTRA:                   0.892
REMARK UNBOUND:                 1.183
REMARK  6 active torsions:
REMARK  status: ('A' for Active; 'I' for Inactive)
REMARK    1  A    between atoms: O_1  and  C_12 
REMARK    2  A    between atoms: O_1  and  C_13 
REMARK    3  A    between atoms: O_2  and  C_9 
REMARK    4  A    between atoms: O_3  and  C_10 
REMARK    5  A    between atoms: O_4  and  C_11 
REMARK    6  A    between atoms: C_6  and  C_12 
ROOT
ATOM      1  C   UNL d   1     -17.407 -16.555  11.061  0.00  0.00     0.044 A 
ATOM      2  C   UNL d   1     -17.389 -15.666  10.604  0.00  0.00     0.057 A 
ATOM      3  C   UNL d   1     -18.277 -17.028  11.201  0.00  0.00     0.057 A 
ATOM      4  C   UNL d   1     -19.129 -16.611  10.884  0.00  0.00     0.102 A 
ATOM      5  C   UNL d   1     -18.241 -15.249  10.287  0.00  0.00     0.102 A 
ATOM      6  C   UNL d   1     -19.111 -15.722  10.427  0.00  0.00     0.132 A 
ENDROOT
BRANCH   1   7
ATOM      7  C   UNL d   1     -16.555 -16.972  11.378  0.00  0.00     0.293 C 
ATOM      8  O   UNL d   1     -16.348 -17.006  12.356  0.00  0.00    -0.259 OA
BRANCH   7   9
ATOM      9  O   UNL d   1     -15.909 -17.355  10.717  0.00  0.00    -0.318 OA
BRANCH   9  10
ATOM     10  C   UNL d   1     -15.046 -17.750  11.032  0.00  0.00     0.174 C 
ATOM     11  C   UNL d   1     -14.412 -18.155  10.373  0.00  0.00     0.034 C 
ENDBRANCH   9  10
ENDBRANCH   7   9
ENDBRANCH   1   7
BRANCH   5  12
ATOM     12  O   UNL d   1     -18.223 -14.360   9.831  0.00  0.00    -0.358 OA
ATOM     13  H   UNL d   1     -17.680 -14.093   9.693  0.00  0.00     0.217 HD
ENDBRANCH   5  12
BRANCH   4  14
ATOM     14  O   UNL d   1     -19.999 -17.084  11.024  0.00  0.00    -0.358 OA
ATOM     15  H   UNL d   1     -20.406 -16.867  11.437  0.00  0.00     0.217 HD
ENDBRANCH   4  14
BRANCH   6  16
ATOM     16  O   UNL d   1     -19.963 -15.305  10.110  0.00  0.00    -0.356 OA
ATOM     17  H   UNL d   1     -20.174 -15.426   9.540  0.00  0.00     0.218 HD
ENDBRANCH   6  16
TORSDOF 6
ENDMDL
MODEL 3
REMARK VINA RESULT:    -6.847     16.004     17.869
REMARK INTER + INTRA:          -7.465
REMARK INTER:                  -8.341
REMARK INTRA:                   0.876
REMARK UNBOUND:                 1.183
REMARK  6 active torsions:
REMARK  status: ('A' for Active; 'I' for Inactive)
REMARK    1  A    between atoms: O_1  and  C_12 
REMARK    2  A    between atoms: O_1  and  C_13 
REMARK    3  A    between atoms: O_2  and  C_9 
REMARK    4  A    between atoms: O_3  and  C_10 
REMARK    5  A    between atoms: O_4  and  C_11 
REMARK    6  A    between atoms: C_6  and  C_12 
ROOT
ATOM      1  C   UNL d   1     -34.612 -19.152 -11.854  0.00  0.00     0.044 A 
ATOM      2  C   UNL d   1     -34.303 -18.332 -12.336  0.00  0.00     0.057 A 
ATOM      3  C   UNL d   1     -35.323 -19.083 -11.155  0.00  0.00     0.057 A 
ATOM      4  C   UNL d   1     -35.725 -18.194 -10.937  0.00  0.00     0.102 A 
ATOM      5  C   UNL d   1     -34.705 -17.443 -12.118  0.00  0.00     0.102 A 
ATOM      6  C   UNL d   1     -35.416 -17.374 -11.418  0.00  0.00     0.132 A 
ENDROOT
BRANCH   1   7
ATOM      7  C   UNL d   1     -34.209 -20.042 -12.072  0.00  0.00     0.293 C 
ATOM      8  O   UNL d   1     -33.495 -20.424 -11.487  0.00  0.00    -0.259 OA
BRANCH   7   9
ATOM      9  O   UNL d   1     -34.522 -20.548 -12.876  0.00  0.00    -0.318 OA
BRANCH   9  10
ATOM     10  C   UNL d   1     -34.089 -21.417 -13.118  0.00  0.00     0.174 C 
ATOM     11  C   UNL d   1     -34.323 -21.868 -13.979  0.00  0.00     0.034 C 
ENDBRANCH   9  10
ENDBRANCH   7   9
ENDBRANCH   1   7
BRANCH   5  12
ATOM     12  O   UNL d   1     -34.397 -16.623 -12.600  0.00  0.00    -0.358 OA
ATOM     13  H   UNL d   1     -33.923 -16.657 -12.998  0.00  0.00     0.217 HD
ENDBRANCH   5  12
BRANCH   4  14
ATOM     14  O   UNL d   1     -36.436 -18.125 -10.237  0.00  0.00    -0.358 OA
ATOM     15  H   UNL d   1     -36.935 -17.769 -10.335  0.00  0.00     0.217 HD
ENDBRANCH   4  14
BRANCH   6  16
ATOM     16  O   UNL d   1     -35.819 -16.485 -11.201  0.00  0.00    -0.356 OA
ATOM     17  H   UNL d   1     -36.360 -16.455 -10.899  0.00  0.00     0.218 HD
ENDBRANCH   6  16
TORSDOF 6
ENDMDL
MODEL 4
REMARK VINA RESULT:    -6.831     16.062     17.865
REMARK INTER + INTRA:          -7.445
REMARK INTER:                  -8.324
REMARK INTRA:                   0.878
REMARK UNBOUND:                 1.183
REMARK  6 active torsions:
REMARK  status: ('A' for Active; 'I' for Inactive)
REMARK    1  A    between atoms: O_1  and  C_12 
REMARK    2  A    between atoms: O_1  and  C_13 
REMARK    3  A    between atoms: O_2  and  C_9 
REMARK    4  A    between atoms: O_3  and  C_10 
REMARK    5  A    between atoms: O_4  and  C_11 
REMARK    6  A    between atoms: C_6  and  C_12 
ROOT
ATOM      1  C   UNL d   1     -34.613 -19.216 -11.842  0.00  0.00     0.044 A 
ATOM      2  C   UNL d   1     -35.327 -19.142 -11.145  0.00  0.00     0.057 A 
ATOM      3  C   UNL d   1     -34.307 -18.401 -12.333  0.00  0.00     0.057 A 
ATOM      4  C   UNL d   1     -34.714 -17.511 -12.127  0.00  0.00     0.102 A 
ATOM      5  C   UNL d   1     -35.733 -18.252 -10.939  0.00  0.00     0.102 A 
ATOM      6  C   UNL d   1     -35.427 -17.436 -11.430  0.00  0.00     0.132 A 
ENDROOT
BRANCH   1   7
ATOM      7  C   UNL d   1     -34.207 -20.107 -12.048  0.00  0.00     0.293 C 
ATOM      8  O   UNL d   1     -33.480 -20.471 -11.465  0.00  0.00    -0.259 OA
BRANCH   7   9
ATOM      9  O   UNL d   1     -34.526 -20.632 -12.837  0.00  0.00    -0.318 OA
BRANCH   9  10
ATOM     10  C   UNL d   1     -34.069 -21.485 -13.087  0.00  0.00     0.174 C 
ATOM     11  C   UNL d   1     -34.311 -21.951 -13.939  0.00  0.00     0.034 C 
ENDBRANCH   9  10
ENDBRANCH   7   9
ENDBRANCH   1   7
BRANCH   5  12
ATOM     12  O   UNL d   1     -36.446 -18.177 -10.242  0.00  0.00    -0.358 OA
ATOM     13  H   UNL d   1     -36.993 -17.922 -10.384  0.00  0.00     0.217 HD
ENDBRANCH   5  12
BRANCH   4  14
ATOM     14  O   UNL d   1     -34.407 -16.696 -12.619  0.00  0.00    -0.358 OA
ATOM     15  H   UNL d   1     -34.636 -16.139 -12.468  0.00  0.00     0.217 HD
ENDBRANCH   4  14
BRANCH   6  16
ATOM     16  O   UNL d   1     -35.834 -16.546 -11.225  0.00  0.00    -0.356 OA
ATOM     17  H   UNL d   1     -36.404 -16.515 -10.983  0.00  0.00     0.218 HD
ENDBRANCH   6  16
TORSDOF 6
ENDMDL
MODEL 5
REMARK VINA RESULT:    -6.799     42.151     43.114
REMARK INTER + INTRA:          -7.404
REMARK INTER:                  -8.335
REMARK INTRA:                   0.931
REMARK UNBOUND:                 1.183
REMARK  6 active torsions:
REMARK  status: ('A' for Active; 'I' for Inactive)
REMARK    1  A    between atoms: O_1  and  C_12 
REMARK    2  A    between atoms: O_1  and  C_13 
REMARK    3  A    between atoms: O_2  and  C_9 
REMARK    4  A    between atoms: O_3  and  C_10 
REMARK    5  A    between atoms: O_4  and  C_11 
REMARK    6  A    between atoms: C_6  and  C_12 
ROOT
ATOM      1  C   UNL d   1     -46.660  37.203 -14.854  0.00  0.00     0.044 A 
ATOM      2  C   UNL d   1     -47.384  36.599 -15.188  0.00  0.00     0.057 A 
ATOM      3  C   UNL d   1     -45.929  36.836 -14.278  0.00  0.00     0.057 A 
ATOM      4  C   UNL d   1     -45.921  35.866 -14.037  0.00  0.00     0.102 A 
ATOM      5  C   UNL d   1     -47.376  35.629 -14.947  0.00  0.00     0.102 A 
ATOM      6  C   UNL d   1     -46.645  35.262 -14.371  0.00  0.00     0.132 A 
ENDROOT
BRANCH   1   7
ATOM      7  C   UNL d   1     -46.667  38.173 -15.095  0.00  0.00     0.293 C 
ATOM      8  O   UNL d   1     -46.627  38.450 -16.055  0.00  0.00    -0.259 OA
BRANCH   7   9
ATOM      9  O   UNL d   1     -46.715  38.867 -14.376  0.00  0.00    -0.318 OA
BRANCH   9  10
ATOM     10  C   UNL d   1     -46.749  39.836 -14.618  0.00  0.00     0.174 C 
ATOM     11  C   UNL d   1     -46.742  40.532 -13.899  0.00  0.00     0.034 C 
ENDBRANCH   9  10
ENDBRANCH   7   9
ENDBRANCH   1   7
BRANCH   5  12
ATOM     12  O   UNL d   1     -48.100  35.025 -15.281  0.00  0.00    -0.358 OA
ATOM     13  H   UNL d   1     -48.135  34.440 -15.077  0.00  0.00     0.217 HD
ENDBRANCH   5  12
BRANCH   4  14
ATOM     14  O   UNL d   1     -45.190  35.499 -13.462  0.00  0.00    -0.358 OA
ATOM     15  H   UNL d   1     -44.632  35.770 -13.459  0.00  0.00     0.217 HD
ENDBRANCH   4  14
BRANCH   6  16
ATOM     16  O   UNL d   1     -46.638  34.291 -14.130  0.00  0.00    -0.356 OA
ATOM     17  H   UNL d   1     -47.002  34.083 -13.674  0.00  0.00     0.218 HD
ENDBRANCH   6  16
TORSDOF 6
ENDMDL
