MODEL 1
REMARK VINA RESULT:    -9.970      0.000      0.000
REMARK INTER + INTRA:          -9.866
REMARK INTER:                 -11.106
REMARK INTRA:                   1.239
REMARK UNBOUND:                 1.269
REMARK  3 active torsions:
REMARK  status: ('A' for Active; 'I' for Inactive)
REMARK    1  A    between atoms: O_2  and  C_10 
REMARK    2  A    between atoms: O_4  and  C_13 
REMARK    3  A    between atoms: C_7  and  C_9 
ROOT
ATOM      1  O   UNL d   1     -31.284 -14.381 -22.332  0.00  0.00    -0.309 OA
ATOM      2  O   UNL d   1     -30.213 -11.830 -23.493  0.00  0.00    -0.287 OA
ATOM      3  C   UNL d   1     -31.481 -12.699 -22.694  0.00  0.00     0.081 A 
ATOM      4  C   UNL d   1     -31.838 -13.549 -22.307  0.00  0.00     0.095 A 
ATOM      5  C   UNL d   1     -30.373 -14.363 -22.744  0.00  0.00     0.090 A 
ATOM      6  C   UNL d   1     -30.570 -12.680 -23.106  0.00  0.00     0.190 A 
ATOM      7  C   UNL d   1     -32.047 -11.824 -22.675  0.00  0.00     0.085 A 
ATOM      8  C   UNL d   1     -30.016 -13.513 -23.131  0.00  0.00     0.094 A 
ATOM      9  C   UNL d   1     -32.785 -13.583 -21.874  0.00  0.00     0.075 A 
ATOM     10  C   UNL d   1     -33.368 -12.721 -21.844  0.00  0.00     0.071 A 
ATOM     11  C   UNL d   1     -32.996 -11.836 -22.247  0.00  0.00     0.074 A 
ENDROOT
BRANCH   5  12
ATOM     12  C   UNL d   1     -29.819 -15.195 -22.769  0.00  0.00    -0.002 A 
ATOM     13  C   UNL d   1     -29.795 -15.803 -21.975  0.00  0.00     0.014 A 
ATOM     14  C   UNL d   1     -29.241 -16.635 -22.000  0.00  0.00     0.001 A 
ATOM     15  C   UNL d   1     -28.711 -16.859 -22.818  0.00  0.00     0.000 A 
ATOM     16  C   UNL d   1     -28.735 -16.250 -23.612  0.00  0.00     0.001 A 
ATOM     17  C   UNL d   1     -29.289 -15.418 -23.587  0.00  0.00     0.014 A 
ENDBRANCH   5  12
BRANCH   7  18
ATOM     18  O   UNL d   1     -31.680 -10.980 -23.065  0.00  0.00    -0.360 OA
ATOM     19  H   UNL d   1     -31.301 -11.004 -23.555  0.00  0.00     0.217 HD
ENDBRANCH   7  18
BRANCH  10  20
ATOM     20  O   UNL d   1     -34.279 -12.743 -21.431  0.00  0.00    -0.361 OA
ATOM     21  H   UNL d   1     -34.378 -12.466 -20.886  0.00  0.00     0.217 HD
ENDBRANCH  10  20
TORSDOF 3
ENDMDL
MODEL 2
REMARK VINA RESULT:    -9.788     35.737     36.838
REMARK INTER + INTRA:          -9.664
REMARK INTER:                 -10.686
REMARK INTRA:                   1.022
REMARK UNBOUND:                 1.269
REMARK  3 active torsions:
REMARK  status: ('A' for Active; 'I' for Inactive)
REMARK    1  A    between atoms: O_2  and  C_10 
REMARK    2  A    between atoms: O_4  and  C_13 
REMARK    3  A    between atoms: C_7  and  C_9 
ROOT
ATOM      1  O   UNL d   1     -16.584 -16.529  10.799  0.00  0.00    -0.309 OA
ATOM      2  O   UNL d   1     -18.449 -18.019  12.616  0.00  0.00    -0.287 OA
ATOM      3  C   UNL d   1     -18.161 -16.740  11.484  0.00  0.00     0.081 A 
ATOM      4  C   UNL d   1     -17.539 -16.244  10.878  0.00  0.00     0.095 A 
ATOM      5  C   UNL d   1     -16.251 -17.311  11.325  0.00  0.00     0.090 A 
ATOM      6  C   UNL d   1     -17.827 -17.522  12.010  0.00  0.00     0.190 A 
ATOM      7  C   UNL d   1     -19.158 -16.455  11.576  0.00  0.00     0.085 A 
ATOM      8  C   UNL d   1     -16.872 -17.807  11.931  0.00  0.00     0.094 A 
ATOM      9  C   UNL d   1     -17.872 -15.427  10.323  0.00  0.00     0.075 A 
ATOM     10  C   UNL d   1     -18.866 -15.124  10.400  0.00  0.00     0.071 A 
ATOM     11  C   UNL d   1     -19.513 -15.641  11.030  0.00  0.00     0.074 A 
ENDROOT
BRANCH   5  12
ATOM     12  C   UNL d   1     -15.295 -17.596  11.246  0.00  0.00    -0.002 A 
ATOM     13  C   UNL d   1     -14.989 -18.100  10.439  0.00  0.00     0.014 A 
ATOM     14  C   UNL d   1     -14.034 -18.386  10.360  0.00  0.00     0.001 A 
ATOM     15  C   UNL d   1     -13.385 -18.166  11.088  0.00  0.00     0.000 A 
ATOM     16  C   UNL d   1     -13.691 -17.662  11.896  0.00  0.00     0.001 A 
ATOM     17  C   UNL d   1     -14.646 -17.377  11.975  0.00  0.00     0.014 A 
ENDBRANCH   5  12
BRANCH   7  18
ATOM     18  O   UNL d   1     -19.771 -16.959  12.185  0.00  0.00    -0.360 OA
ATOM     19  H   UNL d   1     -19.549 -17.219  12.702  0.00  0.00     0.217 HD
ENDBRANCH   7  18
BRANCH  10  20
ATOM     20  O   UNL d   1     -19.195 -14.342   9.871  0.00  0.00    -0.361 OA
ATOM     21  H   UNL d   1     -19.793 -14.307   9.710  0.00  0.00     0.217 HD
ENDBRANCH  10  20
TORSDOF 3
ENDMDL
MODEL 3
REMARK VINA RESULT:    -9.686      1.666      4.586
REMARK INTER + INTRA:          -9.549
REMARK INTER:                 -10.702
REMARK INTRA:                   1.153
REMARK UNBOUND:                 1.269
REMARK  3 active torsions:
REMARK  status: ('A' for Active; 'I' for Inactive)
REMARK    1  A    between atoms: O_2  and  C_10 
REMARK    2  A    between atoms: O_4  and  C_13 
REMARK    3  A    between atoms: C_7  and  C_9 
ROOT
ATOM      1  O   UNL d   1     -30.560 -14.948 -22.202  0.00  0.00    -0.309 OA
ATOM      2  O   UNL d   1     -29.335 -14.546 -24.912  0.00  0.00    -0.287 OA
ATOM      3  C   UNL d   1     -29.426 -15.425 -23.422  0.00  0.00     0.081 A 
ATOM      4  C   UNL d   1     -29.834 -15.559 -22.519  0.00  0.00     0.095 A 
ATOM      5  C   UNL d   1     -30.878 -14.203 -22.789  0.00  0.00     0.090 A 
ATOM      6  C   UNL d   1     -29.744 -14.680 -24.009  0.00  0.00     0.190 A 
ATOM      7  C   UNL d   1     -28.669 -16.053 -23.764  0.00  0.00     0.085 A 
ATOM      8  C   UNL d   1     -30.470 -14.070 -23.692  0.00  0.00     0.094 A 
ATOM      9  C   UNL d   1     -29.513 -16.330 -21.896  0.00  0.00     0.075 A 
ATOM     10  C   UNL d   1     -28.757 -16.970 -22.218  0.00  0.00     0.071 A 
ATOM     11  C   UNL d   1     -28.333 -16.831 -23.158  0.00  0.00     0.074 A 
ENDROOT
BRANCH   5  12
ATOM     12  C   UNL d   1     -31.604 -13.593 -22.473  0.00  0.00    -0.002 A 
ATOM     13  C   UNL d   1     -32.459 -13.973 -22.121  0.00  0.00     0.014 A 
ATOM     14  C   UNL d   1     -33.185 -13.362 -21.805  0.00  0.00     0.001 A 
ATOM     15  C   UNL d   1     -33.056 -12.371 -21.841  0.00  0.00     0.000 A 
ATOM     16  C   UNL d   1     -32.200 -11.991 -22.193  0.00  0.00     0.001 A 
ATOM     17  C   UNL d   1     -31.474 -12.602 -22.509  0.00  0.00     0.014 A 
ENDBRANCH   5  12
BRANCH   7  18
ATOM     18  O   UNL d   1     -28.268 -15.910 -24.669  0.00  0.00    -0.360 OA
ATOM     19  H   UNL d   1     -28.185 -15.334 -24.883  0.00  0.00     0.217 HD
ENDBRANCH   7  18
BRANCH  10  20
ATOM     20  O   UNL d   1     -28.442 -17.714 -21.628  0.00  0.00    -0.361 OA
ATOM     21  H   UNL d   1     -28.124 -18.187 -21.870  0.00  0.00     0.217 HD
ENDBRANCH  10  20
TORSDOF 3
ENDMDL
MODEL 4
REMARK VINA RESULT:    -9.572     21.385     22.574
REMARK INTER + INTRA:          -9.422
REMARK INTER:                 -10.693
REMARK INTRA:                   1.271
REMARK UNBOUND:                 1.269
REMARK  3 active torsions:
REMARK  status: ('A' for Active; 'I' for Inactive)
REMARK    1  A    between atoms: O_2  and  C_10 
REMARK    2  A    between atoms: O_4  and  C_13 
REMARK    3  A    between atoms: C_7  and  C_9 
ROOT
ATOM      1  O   UNL d   1     -36.226 -16.631  -0.336  0.00  0.00    -0.309 OA
ATOM      2  O   UNL d   1     -36.217 -15.537  -3.129  0.00  0.00    -0.287 OA
ATOM      3  C   UNL d   1     -36.993 -16.450  -1.878  0.00  0.00     0.081 A 
ATOM      4  C   UNL d   1     -36.996 -16.814  -0.947  0.00  0.00     0.095 A 
ATOM      5  C   UNL d   1     -35.453 -16.083  -0.656  0.00  0.00     0.090 A 
ATOM      6  C   UNL d   1     -36.220 -15.902  -2.198  0.00  0.00     0.190 A 
ATOM      7  C   UNL d   1     -37.788 -16.632  -2.526  0.00  0.00     0.085 A 
ATOM      8  C   UNL d   1     -35.450 -15.718  -1.587  0.00  0.00     0.094 A 
ATOM      9  C   UNL d   1     -37.794 -17.387  -0.600  0.00  0.00     0.075 A 
ATOM     10  C   UNL d   1     -38.599 -17.582  -1.231  0.00  0.00     0.071 A 
ATOM     11  C   UNL d   1     -38.596 -17.202  -2.200  0.00  0.00     0.074 A 
ENDROOT
BRANCH   5  12
ATOM     12  C   UNL d   1     -34.683 -15.900  -0.045  0.00  0.00    -0.002 A 
ATOM     13  C   UNL d   1     -33.753 -15.864  -0.409  0.00  0.00     0.014 A 
ATOM     14  C   UNL d   1     -32.983 -15.681   0.202  0.00  0.00     0.001 A 
ATOM     15  C   UNL d   1     -33.144 -15.533   1.178  0.00  0.00     0.000 A 
ATOM     16  C   UNL d   1     -34.074 -15.569   1.543  0.00  0.00     0.001 A 
ATOM     17  C   UNL d   1     -34.844 -15.752   0.931  0.00  0.00     0.014 A 
ENDBRANCH   5  12
BRANCH   7  18
ATOM     18  O   UNL d   1     -37.774 -16.263  -3.455  0.00  0.00    -0.360 OA
ATOM     19  H   UNL d   1     -38.102 -16.538  -3.903  0.00  0.00     0.217 HD
ENDBRANCH   7  18
BRANCH  10  20
ATOM     20  O   UNL d   1     -39.370 -18.131  -0.907  0.00  0.00    -0.361 OA
ATOM     21  H   UNL d   1     -39.719 -17.928  -0.436  0.00  0.00     0.217 HD
ENDBRANCH  10  20
TORSDOF 3
ENDMDL
MODEL 5
REMARK VINA RESULT:    -9.547      1.015      2.265
REMARK INTER + INTRA:          -9.394
REMARK INTER:                 -10.680
REMARK INTRA:                   1.286
REMARK UNBOUND:                 1.269
REMARK  3 active torsions:
REMARK  status: ('A' for Active; 'I' for Inactive)
REMARK    1  A    between atoms: O_2  and  C_10 
REMARK    2  A    between atoms: O_4  and  C_13 
REMARK    3  A    between atoms: C_7  and  C_9 
ROOT
ATOM      1  O   UNL d   1     -30.063 -13.618 -23.248  0.00  0.00    -0.309 OA
ATOM      2  O   UNL d   1     -32.788 -13.593 -21.995  0.00  0.00    -0.287 OA
ATOM      3  C   UNL d   1     -31.545 -12.794 -22.898  0.00  0.00     0.081 A 
ATOM      4  C   UNL d   1     -30.637 -12.802 -23.315  0.00  0.00     0.095 A 
ATOM      5  C   UNL d   1     -30.397 -14.426 -22.763  0.00  0.00     0.090 A 
ATOM      6  C   UNL d   1     -31.880 -13.602 -22.413  0.00  0.00     0.190 A 
ATOM      7  C   UNL d   1     -32.154 -11.951 -22.960  0.00  0.00     0.085 A 
ATOM      8  C   UNL d   1     -31.306 -14.418 -22.345  0.00  0.00     0.094 A 
ATOM      9  C   UNL d   1     -30.274 -11.968 -23.824  0.00  0.00     0.075 A 
ATOM     10  C   UNL d   1     -30.867 -11.114 -23.898  0.00  0.00     0.071 A 
ATOM     11  C   UNL d   1     -31.812 -11.106 -23.463  0.00  0.00     0.074 A 
ENDROOT
BRANCH   5  12
ATOM     12  C   UNL d   1     -29.823 -15.242 -22.696  0.00  0.00    -0.002 A 
ATOM     13  C   UNL d   1     -29.222 -15.494 -23.454  0.00  0.00     0.014 A 
ATOM     14  C   UNL d   1     -28.648 -16.310 -23.387  0.00  0.00     0.001 A 
ATOM     15  C   UNL d   1     -28.675 -16.874 -22.561  0.00  0.00     0.000 A 
ATOM     16  C   UNL d   1     -29.276 -16.621 -21.803  0.00  0.00     0.001 A 
ATOM     17  C   UNL d   1     -29.850 -15.805 -21.870  0.00  0.00     0.014 A 
ENDBRANCH   5  12
BRANCH   7  18
ATOM     18  O   UNL d   1     -33.061 -11.954 -22.538  0.00  0.00    -0.360 OA
ATOM     19  H   UNL d   1     -33.382 -11.426 -22.490  0.00  0.00     0.217 HD
ENDBRANCH   7  18
BRANCH  10  20
ATOM     20  O   UNL d   1     -30.528 -10.308 -24.384  0.00  0.00    -0.361 OA
ATOM     21  H   UNL d   1     -30.016 -10.348 -24.731  0.00  0.00     0.217 HD
ENDBRANCH  10  20
TORSDOF 3
ENDMDL
