MODEL 1
REMARK VINA RESULT:     0.000      0.000      0.000
REMARK INTER + INTRA:          12.418
REMARK INTER:                   0.000
REMARK INTRA:                  12.418
REMARK UNBOUND:                12.418
REMARK  9 active torsions:
REMARK  status: ('A' for Active; 'I' for Inactive)
REMARK    1  A    between atoms: C_15  and  O_2 
REMARK    2  A    between atoms: O_2  and  C_17 
REMARK    3  A    between atoms: C_11  and  O_3 
REMARK    4  A    between atoms: C_12  and  O_4 
REMARK    5  A    between atoms: C_13  and  O_5 
REMARK    6  A    between atoms: O_8  and  C_23 
REMARK    7  A    between atoms: O_9  and  C_28 
REMARK    8  A    between atoms: O_10  and  C_31 
REMARK    9  A    between atoms: C_18  and  C_22 
ROOT
ATOM      1  O   UNL d   1     -38.048 -17.356  17.060  0.00  0.00    -0.306 OA
ATOM      2  O   UNL d   1     -35.806 -17.289  19.051  0.00  0.00    -0.284 OA
ATOM      3  C   UNL d   1     -36.595 -18.042  17.706  0.00  0.00     0.157 A 
ATOM      4  C   UNL d   1     -37.342 -18.064  17.042  0.00  0.00     0.123 A 
ATOM      5  C   UNL d   1     -36.553 -17.311  18.387  0.00  0.00     0.223 A 
ATOM      6  C   UNL d   1     -37.259 -16.603  18.405  0.00  0.00     0.084 A 
ATOM      7  C   UNL d   1     -38.007 -16.626  17.742  0.00  0.00     0.096 A 
ATOM      8  C   UNL d   1     -37.203 -15.849  19.121  0.00  0.00     0.085 A 
ATOM      9  C   UNL d   1     -38.750 -15.895  17.748  0.00  0.00     0.075 A 
ATOM     10  C   UNL d   1     -37.935 -15.108  19.146  0.00  0.00     0.074 A 
ATOM     11  C   UNL d   1     -38.713 -15.131  18.455  0.00  0.00     0.071 A 
ENDROOT
BRANCH   3  12
ATOM     12  O   UNL d   1     -35.889 -18.750  17.688  0.00  0.00    -0.311 OA
BRANCH  12  13
ATOM     13  C   UNL d   1     -34.956 -18.519  17.412  0.00  0.00     0.298 A 
ATOM     14  O   UNL d   1     -34.790 -17.725  16.827  0.00  0.00    -0.351 OA
ATOM     15  C   UNL d   1     -33.857 -17.494  16.551  0.00  0.00     0.152 A 
ATOM     16  C   UNL d   1     -33.090 -18.056  16.861  0.00  0.00     0.178 A 
ATOM     17  C   UNL d   1     -33.690 -16.700  15.966  0.00  0.00     0.042 C 
ATOM     18  C   UNL d   1     -33.256 -18.850  17.446  0.00  0.00     0.183 A 
ATOM     19  C   UNL d   1     -34.189 -19.081  17.722  0.00  0.00     0.205 A 
BRANCH  16  20
ATOM     20  O   UNL d   1     -32.157 -17.825  16.585  0.00  0.00    -0.390 OA
ATOM     21  H   UNL d   1     -31.675 -18.119  16.842  0.00  0.00     0.210 HD
ENDBRANCH  16  20
BRANCH  18  22
ATOM     22  O   UNL d   1     -32.489 -19.412  17.755  0.00  0.00    -0.390 OA
ATOM     23  H   UNL d   1     -32.237 -19.830  17.373  0.00  0.00     0.210 HD
ENDBRANCH  18  22
BRANCH  19  24
ATOM     24  O   UNL d   1     -34.355 -19.874  18.307  0.00  0.00    -0.388 OA
ATOM     25  H   UNL d   1     -34.315 -20.447  18.072  0.00  0.00     0.210 HD
ENDBRANCH  19  24
ENDBRANCH  12  13
ENDBRANCH   3  12
BRANCH   4  26
ATOM     26  C   UNL d   1     -37.384 -18.794  16.360  0.00  0.00     0.001 A 
ATOM     27  C   UNL d   1     -37.656 -19.717  16.632  0.00  0.00     0.017 A 
ATOM     28  C   UNL d   1     -37.697 -20.448  15.950  0.00  0.00     0.037 A 
ATOM     29  C   UNL d   1     -37.467 -20.255  14.997  0.00  0.00     0.065 A 
ATOM     30  C   UNL d   1     -37.195 -19.332  14.725  0.00  0.00     0.037 A 
ATOM     31  C   UNL d   1     -37.153 -18.602  15.406  0.00  0.00     0.017 A 
BRANCH  29  32
ATOM     32  O   UNL d   1     -37.508 -20.986  14.315  0.00  0.00    -0.361 OA
ATOM     33  H   UNL d   1     -37.033 -21.075  13.927  0.00  0.00     0.217 HD
ENDBRANCH  29  32
ENDBRANCH   4  26
BRANCH   8  34
ATOM     34  O   UNL d   1     -36.451 -15.836  19.780  0.00  0.00    -0.360 OA
ATOM     35  H   UNL d   1     -36.562 -15.702  20.376  0.00  0.00     0.217 HD
ENDBRANCH   8  34
BRANCH  11  36
ATOM     36  O   UNL d   1     -39.421 -14.425  18.470  0.00  0.00    -0.361 OA
ATOM     37  H   UNL d   1     -39.655 -14.209  17.937  0.00  0.00     0.217 HD
ENDBRANCH  11  36
TORSDOF 9
ENDMDL
MODEL 2
REMARK VINA RESULT:     0.000     54.665     56.728
REMARK INTER + INTRA:          12.418
REMARK INTER:                   0.000
REMARK INTRA:                  12.418
REMARK UNBOUND:                12.418
REMARK  9 active torsions:
REMARK  status: ('A' for Active; 'I' for Inactive)
REMARK    1  A    between atoms: C_15  and  O_2 
REMARK    2  A    between atoms: O_2  and  C_17 
REMARK    3  A    between atoms: C_11  and  O_3 
REMARK    4  A    between atoms: C_12  and  O_4 
REMARK    5  A    between atoms: C_13  and  O_5 
REMARK    6  A    between atoms: O_8  and  C_23 
REMARK    7  A    between atoms: O_9  and  C_28 
REMARK    8  A    between atoms: O_10  and  C_31 
REMARK    9  A    between atoms: C_18  and  C_22 
ROOT
ATOM      1  O   UNL d   1      17.260 -31.239   6.341  0.00  0.00    -0.306 OA
ATOM      2  O   UNL d   1      18.548 -28.629   7.068  0.00  0.00    -0.284 OA
ATOM      3  C   UNL d   1      18.442 -30.349   7.242  0.00  0.00     0.157 A 
ATOM      4  C   UNL d   1      18.013 -31.219   6.999  0.00  0.00     0.123 A 
ATOM      5  C   UNL d   1      18.119 -29.499   6.826  0.00  0.00     0.223 A 
ATOM      6  C   UNL d   1      17.366 -29.519   6.168  0.00  0.00     0.084 A 
ATOM      7  C   UNL d   1      16.937 -30.389   5.925  0.00  0.00     0.096 A 
ATOM      8  C   UNL d   1      17.040 -28.625   5.743  0.00  0.00     0.085 A 
ATOM      9  C   UNL d   1      16.152 -30.425   5.241  0.00  0.00     0.075 A 
ATOM     10  C   UNL d   1      16.257 -28.638   5.056  0.00  0.00     0.074 A 
ATOM     11  C   UNL d   1      15.809 -29.544   4.804  0.00  0.00     0.071 A 
ENDROOT
BRANCH   3  12
ATOM     12  O   UNL d   1      19.195 -30.329   7.900  0.00  0.00    -0.311 OA
BRANCH  12  13
ATOM     13  C   UNL d   1      19.060 -29.916   8.801  0.00  0.00     0.298 A 
ATOM     14  O   UNL d   1      18.141 -29.854   9.190  0.00  0.00    -0.351 OA
ATOM     15  C   UNL d   1      18.007 -29.442  10.091  0.00  0.00     0.152 A 
ATOM     16  C   UNL d   1      18.791 -29.091  10.602  0.00  0.00     0.178 A 
ATOM     17  C   UNL d   1      17.088 -29.380  10.481  0.00  0.00     0.042 C 
ATOM     18  C   UNL d   1      19.710 -29.153  10.213  0.00  0.00     0.183 A 
ATOM     19  C   UNL d   1      19.845 -29.565   9.312  0.00  0.00     0.205 A 
BRANCH  16  20
ATOM     20  O   UNL d   1      18.657 -28.678  11.503  0.00  0.00    -0.390 OA
ATOM     21  H   UNL d   1      19.111 -28.346  11.763  0.00  0.00     0.210 HD
ENDBRANCH  16  20
BRANCH  18  22
ATOM     22  O   UNL d   1      20.495 -28.802  10.724  0.00  0.00    -0.390 OA
ATOM     23  H   UNL d   1      20.949 -28.501  10.428  0.00  0.00     0.210 HD
ENDBRANCH  18  22
BRANCH  19  24
ATOM     24  O   UNL d   1      20.764 -29.627   8.922  0.00  0.00    -0.388 OA
ATOM     25  H   UNL d   1      20.848 -29.887   8.366  0.00  0.00     0.210 HD
ENDBRANCH  19  24
ENDBRANCH  12  13
ENDBRANCH   3  12
BRANCH   4  26
ATOM     26  C   UNL d   1      18.336 -32.069   7.415  0.00  0.00     0.001 A 
ATOM     27  C   UNL d   1      19.206 -32.468   7.126  0.00  0.00     0.017 A 
ATOM     28  C   UNL d   1      19.529 -33.318   7.542  0.00  0.00     0.037 A 
ATOM     29  C   UNL d   1      18.982 -33.769   8.247  0.00  0.00     0.065 A 
ATOM     30  C   UNL d   1      18.112 -33.370   8.536  0.00  0.00     0.037 A 
ATOM     31  C   UNL d   1      17.789 -32.520   8.120  0.00  0.00     0.017 A 
BRANCH  29  32
ATOM     32  O   UNL d   1      19.306 -34.619   8.663  0.00  0.00    -0.361 OA
ATOM     33  H   UNL d   1      19.837 -34.875   8.471  0.00  0.00     0.217 HD
ENDBRANCH  29  32
ENDBRANCH   4  26
BRANCH   8  34
ATOM     34  O   UNL d   1      17.477 -27.761   5.992  0.00  0.00    -0.360 OA
ATOM     35  H   UNL d   1      17.146 -27.315   6.269  0.00  0.00     0.217 HD
ENDBRANCH   8  34
BRANCH  11  36
ATOM     36  O   UNL d   1      15.056 -29.568   4.146  0.00  0.00    -0.361 OA
ATOM     37  H   UNL d   1      15.105 -29.912   3.632  0.00  0.00     0.217 HD
ENDBRANCH  11  36
TORSDOF 9
ENDMDL
MODEL 3
REMARK VINA RESULT:     0.000     66.001     68.325
REMARK INTER + INTRA:          12.418
REMARK INTER:                   0.000
REMARK INTRA:                  12.418
REMARK UNBOUND:                12.418
REMARK  9 active torsions:
REMARK  status: ('A' for Active; 'I' for Inactive)
REMARK    1  A    between atoms: C_15  and  O_2 
REMARK    2  A    between atoms: O_2  and  C_17 
REMARK    3  A    between atoms: C_11  and  O_3 
REMARK    4  A    between atoms: C_12  and  O_4 
REMARK    5  A    between atoms: C_13  and  O_5 
REMARK    6  A    between atoms: O_8  and  C_23 
REMARK    7  A    between atoms: O_9  and  C_28 
REMARK    8  A    between atoms: O_10  and  C_31 
REMARK    9  A    between atoms: C_18  and  C_22 
ROOT
ATOM      1  O   UNL d   1      17.587  22.459  20.257  0.00  0.00    -0.306 OA
ATOM      2  O   UNL d   1      19.662  21.766  22.310  0.00  0.00    -0.284 OA
ATOM      3  C   UNL d   1      18.935  21.496  20.761  0.00  0.00     0.157 A 
ATOM      4  C   UNL d   1      18.243  21.727  20.077  0.00  0.00     0.123 A 
ATOM      5  C   UNL d   1      18.970  21.997  21.626  0.00  0.00     0.223 A 
ATOM      6  C   UNL d   1      18.314  22.730  21.806  0.00  0.00     0.084 A 
ATOM      7  C   UNL d   1      17.622  22.961  21.122  0.00  0.00     0.096 A 
ATOM      8  C   UNL d   1      18.363  23.244  22.711  0.00  0.00     0.085 A 
ATOM      9  C   UNL d   1      16.932  23.722  21.295  0.00  0.00     0.075 A 
ATOM     10  C   UNL d   1      17.683  24.008  22.906  0.00  0.00     0.074 A 
ATOM     11  C   UNL d   1      16.962  24.249  22.193  0.00  0.00     0.071 A 
ENDROOT
BRANCH   3  12
ATOM     12  O   UNL d   1      19.591  20.763  20.581  0.00  0.00    -0.311 OA
BRANCH  12  13
ATOM     13  C   UNL d   1      20.557  20.981  20.438  0.00  0.00     0.298 A 
ATOM     14  O   UNL d   1      20.822  21.890  20.116  0.00  0.00    -0.351 OA
ATOM     15  C   UNL d   1      21.788  22.107  19.973  0.00  0.00     0.152 A 
ATOM     16  C   UNL d   1      22.488  21.416  20.152  0.00  0.00     0.178 A 
ATOM     17  C   UNL d   1      22.053  23.016  19.652  0.00  0.00     0.042 C 
ATOM     18  C   UNL d   1      22.223  20.507  20.473  0.00  0.00     0.183 A 
ATOM     19  C   UNL d   1      21.257  20.289  20.616  0.00  0.00     0.205 A 
BRANCH  16  20
ATOM     20  O   UNL d   1      23.453  21.634  20.008  0.00  0.00    -0.390 OA
ATOM     21  H   UNL d   1      23.749  21.417  19.508  0.00  0.00     0.210 HD
ENDBRANCH  16  20
BRANCH  18  22
ATOM     22  O   UNL d   1      22.923  19.816  20.652  0.00  0.00    -0.390 OA
ATOM     23  H   UNL d   1      23.522  19.976  20.657  0.00  0.00     0.210 HD
ENDBRANCH  18  22
BRANCH  19  24
ATOM     24  O   UNL d   1      20.992  19.380  20.938  0.00  0.00    -0.388 OA
ATOM     25  H   UNL d   1      20.706  19.316  21.484  0.00  0.00     0.210 HD
ENDBRANCH  19  24
ENDBRANCH  12  13
ENDBRANCH   3  12
BRANCH   4  26
ATOM     26  C   UNL d   1      18.208  21.225  19.213  0.00  0.00     0.001 A 
ATOM     27  C   UNL d   1      17.854  20.290  19.192  0.00  0.00     0.017 A 
ATOM     28  C   UNL d   1      17.819  19.788  18.327  0.00  0.00     0.037 A 
ATOM     29  C   UNL d   1      18.137  20.222  17.484  0.00  0.00     0.065 A 
ATOM     30  C   UNL d   1      18.491  21.157  17.506  0.00  0.00     0.037 A 
ATOM     31  C   UNL d   1      18.527  21.658  18.370  0.00  0.00     0.017 A 
BRANCH  29  32
ATOM     32  O   UNL d   1      18.102  19.720  16.620  0.00  0.00    -0.361 OA
ATOM     33  H   UNL d   1      17.628  19.807  16.230  0.00  0.00     0.217 HD
ENDBRANCH  29  32
ENDBRANCH   4  26
BRANCH   8  34
ATOM     34  O   UNL d   1      19.059  23.004  23.388  0.00  0.00    -0.360 OA
ATOM     35  H   UNL d   1      19.656  22.976  23.222  0.00  0.00     0.217 HD
ENDBRANCH   8  34
BRANCH  11  36
ATOM     36  O   UNL d   1      16.304  24.981  22.370  0.00  0.00    -0.361 OA
ATOM     37  H   UNL d   1      15.719  24.925  22.173  0.00  0.00     0.217 HD
ENDBRANCH  11  36
TORSDOF 9
ENDMDL
MODEL 4
REMARK VINA RESULT:     0.000     34.490     37.801
REMARK INTER + INTRA:          12.418
REMARK INTER:                   0.000
REMARK INTRA:                  12.418
REMARK UNBOUND:                12.418
REMARK  9 active torsions:
REMARK  status: ('A' for Active; 'I' for Inactive)
REMARK    1  A    between atoms: C_15  and  O_2 
REMARK    2  A    between atoms: O_2  and  C_17 
REMARK    3  A    between atoms: C_11  and  O_3 
REMARK    4  A    between atoms: C_12  and  O_4 
REMARK    5  A    between atoms: C_13  and  O_5 
REMARK    6  A    between atoms: O_8  and  C_23 
REMARK    7  A    between atoms: O_9  and  C_28 
REMARK    8  A    between atoms: O_10  and  C_31 
REMARK    9  A    between atoms: C_18  and  C_22 
ROOT
ATOM      1  O   UNL d   1      -3.119  -3.822  11.504  0.00  0.00    -0.306 OA
ATOM      2  O   UNL d   1      -4.492  -1.249  10.805  0.00  0.00    -0.284 OA
ATOM      3  C   UNL d   1      -3.136  -2.091  11.476  0.00  0.00     0.157 A 
ATOM      4  C   UNL d   1      -2.678  -2.949  11.709  0.00  0.00     0.123 A 
ATOM      5  C   UNL d   1      -4.035  -2.107  11.038  0.00  0.00     0.223 A 
ATOM      6  C   UNL d   1      -4.475  -2.980  10.833  0.00  0.00     0.084 A 
ATOM      7  C   UNL d   1      -4.018  -3.838  11.066  0.00  0.00     0.096 A 
ATOM      8  C   UNL d   1      -5.412  -2.981  10.376  0.00  0.00     0.085 A 
ATOM      9  C   UNL d   1      -4.464  -4.757  10.859  0.00  0.00     0.075 A 
ATOM     10  C   UNL d   1      -5.877  -3.888  10.160  0.00  0.00     0.074 A 
ATOM     11  C   UNL d   1      -5.401  -4.781  10.402  0.00  0.00     0.071 A 
ENDROOT
BRANCH   3  12
ATOM     12  O   UNL d   1      -2.695  -1.217  11.682  0.00  0.00    -0.311 OA
BRANCH  12  13
ATOM     13  C   UNL d   1      -2.364  -0.637  10.937  0.00  0.00     0.298 A 
ATOM     14  O   UNL d   1      -2.134  -1.042  10.052  0.00  0.00    -0.351 OA
ATOM     15  C   UNL d   1      -1.803  -0.462   9.308  0.00  0.00     0.152 A 
ATOM     16  C   UNL d   1      -1.702   0.523   9.448  0.00  0.00     0.178 A 
ATOM     17  C   UNL d   1      -1.573  -0.867   8.423  0.00  0.00     0.042 C 
ATOM     18  C   UNL d   1      -1.932   0.928  10.333  0.00  0.00     0.183 A 
ATOM     19  C   UNL d   1      -2.263   0.348  11.078  0.00  0.00     0.205 A 
BRANCH  16  20
ATOM     20  O   UNL d   1      -1.371   1.103   8.704  0.00  0.00    -0.390 OA
ATOM     21  H   UNL d   1      -1.680   1.620   8.553  0.00  0.00     0.210 HD
ENDBRANCH  16  20
BRANCH  18  22
ATOM     22  O   UNL d   1      -1.832   1.913  10.474  0.00  0.00    -0.390 OA
ATOM     23  H   UNL d   1      -2.311   2.247  10.680  0.00  0.00     0.210 HD
ENDBRANCH  18  22
BRANCH  19  24
ATOM     24  O   UNL d   1      -2.493   0.753  11.963  0.00  0.00    -0.388 OA
ATOM     25  H   UNL d   1      -2.227   1.284  12.139  0.00  0.00     0.210 HD
ENDBRANCH  19  24
ENDBRANCH  12  13
ENDBRANCH   3  12
BRANCH   4  26
ATOM     26  C   UNL d   1      -1.779  -2.933  12.148  0.00  0.00     0.001 A 
ATOM     27  C   UNL d   1      -1.697  -2.678  13.111  0.00  0.00     0.017 A 
ATOM     28  C   UNL d   1      -0.798  -2.662  13.549  0.00  0.00     0.037 A 
ATOM     29  C   UNL d   1       0.018  -2.901  13.024  0.00  0.00     0.065 A 
ATOM     30  C   UNL d   1      -0.064  -3.156  12.060  0.00  0.00     0.037 A 
ATOM     31  C   UNL d   1      -0.963  -3.172  11.622  0.00  0.00     0.017 A 
BRANCH  29  32
ATOM     32  O   UNL d   1       0.917  -2.885  13.462  0.00  0.00    -0.361 OA
ATOM     33  H   UNL d   1       1.091  -2.392  13.796  0.00  0.00     0.217 HD
ENDBRANCH  29  32
ENDBRANCH   4  26
BRANCH   8  34
ATOM     34  O   UNL d   1      -5.860  -2.117  10.148  0.00  0.00    -0.360 OA
ATOM     35  H   UNL d   1      -5.664  -1.785   9.662  0.00  0.00     0.217 HD
ENDBRANCH   8  34
BRANCH  11  36
ATOM     36  O   UNL d   1      -5.838  -5.657  10.199  0.00  0.00    -0.361 OA
ATOM     37  H   UNL d   1      -5.495  -6.139  10.012  0.00  0.00     0.217 HD
ENDBRANCH  11  36
TORSDOF 9
ENDMDL
MODEL 5
REMARK VINA RESULT:     0.000     91.612     94.716
REMARK INTER + INTRA:          12.419
REMARK INTER:                   0.000
REMARK INTRA:                  12.419
REMARK UNBOUND:                12.418
REMARK  9 active torsions:
REMARK  status: ('A' for Active; 'I' for Inactive)
REMARK    1  A    between atoms: C_15  and  O_2 
REMARK    2  A    between atoms: O_2  and  C_17 
REMARK    3  A    between atoms: C_11  and  O_3 
REMARK    4  A    between atoms: C_12  and  O_4 
REMARK    5  A    between atoms: C_13  and  O_5 
REMARK    6  A    between atoms: O_8  and  C_23 
REMARK    7  A    between atoms: O_9  and  C_28 
REMARK    8  A    between atoms: O_10  and  C_31 
REMARK    9  A    between atoms: C_18  and  C_22 
ROOT
ATOM      1  O   UNL d   1      29.777  15.767 -38.670  0.00  0.00    -0.306 OA
ATOM      2  O   UNL d   1      29.343  17.484 -41.091  0.00  0.00    -0.284 OA
ATOM      3  C   UNL d   1      30.347  16.412 -40.173  0.00  0.00     0.157 A 
ATOM      4  C   UNL d   1      30.491  15.839 -39.366  0.00  0.00     0.123 A 
ATOM      5  C   UNL d   1      29.488  16.912 -40.284  0.00  0.00     0.223 A 
ATOM      6  C   UNL d   1      28.773  16.839 -39.588  0.00  0.00     0.084 A 
ATOM      7  C   UNL d   1      28.918  16.267 -38.781  0.00  0.00     0.096 A 
ATOM      8  C   UNL d   1      27.884  17.366 -39.717  0.00  0.00     0.085 A 
ATOM      9  C   UNL d   1      28.183  16.181 -38.047  0.00  0.00     0.075 A 
ATOM     10  C   UNL d   1      27.135  17.295 -38.996  0.00  0.00     0.074 A 
ATOM     11  C   UNL d   1      27.286  16.699 -38.155  0.00  0.00     0.071 A 
ENDROOT
BRANCH   3  12
ATOM     12  O   UNL d   1      31.061  16.484 -40.869  0.00  0.00    -0.311 OA
BRANCH  12  13
ATOM     13  C   UNL d   1      31.555  17.345 -40.991  0.00  0.00     0.298 A 
ATOM     14  O   UNL d   1      31.618  17.996 -40.235  0.00  0.00    -0.351 OA
ATOM     15  C   UNL d   1      32.112  18.857 -40.356  0.00  0.00     0.152 A 
ATOM     16  C   UNL d   1      32.543  19.067 -41.234  0.00  0.00     0.178 A 
ATOM     17  C   UNL d   1      32.175  19.509 -39.600  0.00  0.00     0.042 C 
ATOM     18  C   UNL d   1      32.480  18.416 -41.990  0.00  0.00     0.183 A 
ATOM     19  C   UNL d   1      31.986  17.555 -41.868  0.00  0.00     0.205 A 
BRANCH  16  20
ATOM     20  O   UNL d   1      33.037  19.928 -41.356  0.00  0.00    -0.390 OA
ATOM     21  H   UNL d   1      32.791  20.458 -41.149  0.00  0.00     0.210 HD
ENDBRANCH  16  20
BRANCH  18  22
ATOM     22  O   UNL d   1      32.910  18.625 -42.868  0.00  0.00    -0.390 OA
ATOM     23  H   UNL d   1      33.375  18.272 -43.077  0.00  0.00     0.210 HD
ENDBRANCH  18  22
BRANCH  19  24
ATOM     24  O   UNL d   1      31.922  16.903 -42.625  0.00  0.00    -0.388 OA
ATOM     25  H   UNL d   1      32.423  16.584 -42.802  0.00  0.00     0.210 HD
ENDBRANCH  19  24
ENDBRANCH  12  13
ENDBRANCH   3  12
BRANCH   4  26
ATOM     26  C   UNL d   1      31.350  15.339 -39.255  0.00  0.00     0.001 A 
ATOM     27  C   UNL d   1      31.531  14.527 -39.810  0.00  0.00     0.017 A 
ATOM     28  C   UNL d   1      32.390  14.027 -39.699  0.00  0.00     0.037 A 
ATOM     29  C   UNL d   1      33.068  14.340 -39.033  0.00  0.00     0.065 A 
ATOM     30  C   UNL d   1      32.887  15.152 -38.478  0.00  0.00     0.037 A 
ATOM     31  C   UNL d   1      32.028  15.652 -38.589  0.00  0.00     0.017 A 
BRANCH  29  32
ATOM     32  O   UNL d   1      33.927  13.840 -38.922  0.00  0.00    -0.361 OA
ATOM     33  H   UNL d   1      34.012  13.300 -39.215  0.00  0.00     0.217 HD
ENDBRANCH  29  32
ENDBRANCH   4  26
BRANCH   8  34
ATOM     34  O   UNL d   1      27.750  17.935 -40.528  0.00  0.00    -0.360 OA
ATOM     35  H   UNL d   1      28.241  18.138 -40.849  0.00  0.00     0.217 HD
ENDBRANCH   8  34
BRANCH  11  36
ATOM     36  O   UNL d   1      26.574  16.624 -37.457  0.00  0.00    -0.361 OA
ATOM     37  H   UNL d   1      26.255  16.096 -37.395  0.00  0.00     0.217 HD
ENDBRANCH  11  36
TORSDOF 9
ENDMDL
