MODEL 1
REMARK VINA RESULT:    -5.950      0.000      0.000
REMARK INTER + INTRA:          -6.585
REMARK INTER:                  -7.557
REMARK INTRA:                   0.972
REMARK UNBOUND:                 0.930
REMARK  6 active torsions:
REMARK  status: ('A' for Active; 'I' for Inactive)
REMARK    1  A    between atoms: O_1  and  C_8 
REMARK    2  A    between atoms: O_2  and  C_9 
REMARK    3  A    between atoms: O_3  and  C_13 
REMARK    4  A    between atoms: C_5  and  C_11 
REMARK    5  A    between atoms: C_11  and  C_12 
REMARK    6  A    between atoms: C_12  and  C_13 
ROOT
ATOM      1  C   UNL d   1     -15.963   4.316  29.704  0.00  0.00    -0.033 A 
ATOM      2  C   UNL d   1     -15.002   4.056  29.601  0.00  0.00     0.050 A 
ATOM      3  C   UNL d   1     -16.297   5.167  29.300  0.00  0.00     0.014 A 
ATOM      4  C   UNL d   1     -14.376   4.648  29.094  0.00  0.00     0.099 A 
ATOM      5  C   UNL d   1     -14.710   5.500  28.690  0.00  0.00     0.098 A 
ATOM      6  C   UNL d   1     -15.670   5.759  28.793  0.00  0.00     0.040 A 
ENDROOT
BRANCH   1   7
ATOM      7  C   UNL d   1     -16.589   3.723  30.211  0.00  0.00     0.018 C 
BRANCH   7   8
ATOM      8  C   UNL d   1     -17.324   3.245  29.730  0.00  0.00     0.082 C 
BRANCH   8   9
ATOM      9  C   UNL d   1     -17.858   2.545  30.204  0.00  0.00     0.165 C 
ATOM     10  O   UNL d   1     -17.774   1.585  29.937  0.00  0.00    -0.647 OA
BRANCH   9  11
ATOM     11  O   UNL d   1     -18.478   2.805  30.945  0.00  0.00    -0.773 OA
ATOM     12  H   UNL d   1     -18.756   3.359  30.936  0.00  0.00     0.167 HD
ENDBRANCH   9  11
ENDBRANCH   8   9
ENDBRANCH   7   8
ENDBRANCH   1   7
BRANCH   4  13
ATOM     13  O   UNL d   1     -13.416   4.389  28.991  0.00  0.00    -0.358 OA
ATOM     14  H   UNL d   1     -12.983   4.657  29.344  0.00  0.00     0.217 HD
ENDBRANCH   4  13
BRANCH   5  15
ATOM     15  O   UNL d   1     -14.084   6.092  28.183  0.00  0.00    -0.358 OA
ATOM     16  H   UNL d   1     -13.576   5.853  27.919  0.00  0.00     0.217 HD
ENDBRANCH   5  15
TORSDOF 6
ENDMDL
MODEL 2
REMARK VINA RESULT:    -5.936      9.861     11.964
REMARK INTER + INTRA:          -6.568
REMARK INTER:                  -7.605
REMARK INTRA:                   1.037
REMARK UNBOUND:                 0.930
REMARK  6 active torsions:
REMARK  status: ('A' for Active; 'I' for Inactive)
REMARK    1  A    between atoms: O_1  and  C_8 
REMARK    2  A    between atoms: O_2  and  C_9 
REMARK    3  A    between atoms: O_3  and  C_13 
REMARK    4  A    between atoms: C_5  and  C_11 
REMARK    5  A    between atoms: C_11  and  C_12 
REMARK    6  A    between atoms: C_12  and  C_13 
ROOT
ATOM      1  C   UNL d   1      -9.866  13.211  31.545  0.00  0.00    -0.033 A 
ATOM      2  C   UNL d   1      -9.468  12.294  31.559  0.00  0.00     0.050 A 
ATOM      3  C   UNL d   1     -10.671  13.416  32.101  0.00  0.00     0.014 A 
ATOM      4  C   UNL d   1      -9.877  11.581  32.129  0.00  0.00     0.099 A 
ATOM      5  C   UNL d   1     -10.682  11.786  32.685  0.00  0.00     0.098 A 
ATOM      6  C   UNL d   1     -11.079  12.703  32.671  0.00  0.00     0.040 A 
ENDROOT
BRANCH   1   7
ATOM      7  C   UNL d   1      -9.457  13.924  30.975  0.00  0.00     0.018 C 
BRANCH   7   8
ATOM      8  C   UNL d   1      -9.171  14.790  31.385  0.00  0.00     0.082 C 
BRANCH   8   9
ATOM      9  C   UNL d   1      -8.533  15.387  30.899  0.00  0.00     0.165 C 
ATOM     10  O   UNL d   1      -8.744  15.694  29.971  0.00  0.00    -0.647 OA
BRANCH   9  11
ATOM     11  O   UNL d   1      -7.684  15.677  31.340  0.00  0.00    -0.773 OA
ATOM     12  H   UNL d   1      -7.238  15.950  31.007  0.00  0.00     0.167 HD
ENDBRANCH   9  11
ENDBRANCH   8   9
ENDBRANCH   7   8
ENDBRANCH   1   7
BRANCH   4  13
ATOM     13  O   UNL d   1      -9.480  10.663  32.143  0.00  0.00    -0.358 OA
ATOM     14  H   UNL d   1      -9.683  10.231  31.748  0.00  0.00     0.217 HD
ENDBRANCH   4  13
BRANCH   5  15
ATOM     15  O   UNL d   1     -11.091  11.073  33.256  0.00  0.00    -0.358 OA
ATOM     16  H   UNL d   1     -11.229  10.521  33.010  0.00  0.00     0.217 HD
ENDBRANCH   5  15
TORSDOF 6
ENDMDL
MODEL 3
REMARK VINA RESULT:    -5.923      1.489      3.913
REMARK INTER + INTRA:          -6.551
REMARK INTER:                  -7.548
REMARK INTRA:                   0.997
REMARK UNBOUND:                 0.930
REMARK  6 active torsions:
REMARK  status: ('A' for Active; 'I' for Inactive)
REMARK    1  A    between atoms: O_1  and  C_8 
REMARK    2  A    between atoms: O_2  and  C_9 
REMARK    3  A    between atoms: O_3  and  C_13 
REMARK    4  A    between atoms: C_5  and  C_11 
REMARK    5  A    between atoms: C_11  and  C_12 
REMARK    6  A    between atoms: C_12  and  C_13 
ROOT
ATOM      1  C   UNL d   1     -16.013   4.565  29.983  0.00  0.00    -0.033 A 
ATOM      2  C   UNL d   1     -15.361   4.365  30.715  0.00  0.00     0.050 A 
ATOM      3  C   UNL d   1     -16.782   3.949  29.816  0.00  0.00     0.014 A 
ATOM      4  C   UNL d   1     -15.478   3.548  31.279  0.00  0.00     0.099 A 
ATOM      5  C   UNL d   1     -16.248   2.931  31.112  0.00  0.00     0.098 A 
ATOM      6  C   UNL d   1     -16.899   3.131  30.380  0.00  0.00     0.040 A 
ENDROOT
BRANCH   1   7
ATOM      7  C   UNL d   1     -15.895   5.383  29.419  0.00  0.00     0.018 C 
BRANCH   7   8
ATOM      8  C   UNL d   1     -15.185   5.406  28.715  0.00  0.00     0.082 C 
BRANCH   8   9
ATOM      9  C   UNL d   1     -15.029   6.243  28.191  0.00  0.00     0.165 C 
ATOM     10  O   UNL d   1     -15.805   6.801  27.897  0.00  0.00    -0.647 OA
BRANCH   9  11
ATOM     11  O   UNL d   1     -14.097   6.522  27.960  0.00  0.00    -0.773 OA
ATOM     12  H   UNL d   1     -13.891   6.464  27.378  0.00  0.00     0.167 HD
ENDBRANCH   9  11
ENDBRANCH   8   9
ENDBRANCH   7   8
ENDBRANCH   1   7
BRANCH   4  13
ATOM     13  O   UNL d   1     -14.827   3.348  32.011  0.00  0.00    -0.358 OA
ATOM     14  H   UNL d   1     -14.228   3.495  31.942  0.00  0.00     0.217 HD
ENDBRANCH   4  13
BRANCH   5  15
ATOM     15  O   UNL d   1     -16.365   2.114  31.676  0.00  0.00    -0.358 OA
ATOM     16  H   UNL d   1     -16.034   2.046  32.196  0.00  0.00     0.217 HD
ENDBRANCH   5  15
TORSDOF 6
ENDMDL
MODEL 4
REMARK VINA RESULT:    -5.920     26.021     27.156
REMARK INTER + INTRA:          -6.548
REMARK INTER:                  -7.581
REMARK INTRA:                   1.034
REMARK UNBOUND:                 0.930
REMARK  6 active torsions:
REMARK  status: ('A' for Active; 'I' for Inactive)
REMARK    1  A    between atoms: O_1  and  C_8 
REMARK    2  A    between atoms: O_2  and  C_9 
REMARK    3  A    between atoms: O_3  and  C_13 
REMARK    4  A    between atoms: C_5  and  C_11 
REMARK    5  A    between atoms: C_11  and  C_12 
REMARK    6  A    between atoms: C_12  and  C_13 
ROOT
ATOM      1  C   UNL d   1     -32.351  14.816  47.981  0.00  0.00    -0.033 A 
ATOM      2  C   UNL d   1     -31.748  15.157  48.703  0.00  0.00     0.050 A 
ATOM      3  C   UNL d   1     -32.061  14.859  47.025  0.00  0.00     0.014 A 
ATOM      4  C   UNL d   1     -30.855  15.541  48.468  0.00  0.00     0.099 A 
ATOM      5  C   UNL d   1     -30.565  15.585  47.512  0.00  0.00     0.098 A 
ATOM      6  C   UNL d   1     -31.168  15.244  46.791  0.00  0.00     0.040 A 
ENDROOT
BRANCH   1   7
ATOM      7  C   UNL d   1     -33.244  14.431  48.216  0.00  0.00     0.018 C 
BRANCH   7   8
ATOM      8  C   UNL d   1     -34.077  14.951  48.026  0.00  0.00     0.082 C 
BRANCH   8   9
ATOM      9  C   UNL d   1     -34.958  14.628  48.374  0.00  0.00     0.165 C 
ATOM     10  O   UNL d   1     -35.730  14.511  47.750  0.00  0.00    -0.647 OA
BRANCH   9  11
ATOM     11  O   UNL d   1     -35.065  14.422  49.347  0.00  0.00    -0.773 OA
ATOM     12  H   UNL d   1     -34.637  14.611  49.753  0.00  0.00     0.167 HD
ENDBRANCH   9  11
ENDBRANCH   8   9
ENDBRANCH   7   8
ENDBRANCH   1   7
BRANCH   4  13
ATOM     13  O   UNL d   1     -30.253  15.882  49.189  0.00  0.00    -0.358 OA
ATOM     14  H   UNL d   1     -30.487  16.039  49.741  0.00  0.00     0.217 HD
ENDBRANCH   4  13
BRANCH   5  15
ATOM     15  O   UNL d   1     -29.673  15.969  47.277  0.00  0.00    -0.358 OA
ATOM     16  H   UNL d   1     -29.281  16.140  47.727  0.00  0.00     0.217 HD
ENDBRANCH   5  15
TORSDOF 6
ENDMDL
MODEL 5
REMARK VINA RESULT:    -5.880      9.935     11.410
REMARK INTER + INTRA:          -6.497
REMARK INTER:                  -7.608
REMARK INTRA:                   1.112
REMARK UNBOUND:                 0.930
REMARK  6 active torsions:
REMARK  status: ('A' for Active; 'I' for Inactive)
REMARK    1  A    between atoms: O_1  and  C_8 
REMARK    2  A    between atoms: O_2  and  C_9 
REMARK    3  A    between atoms: O_3  and  C_13 
REMARK    4  A    between atoms: C_5  and  C_11 
REMARK    5  A    between atoms: C_11  and  C_12 
REMARK    6  A    between atoms: C_12  and  C_13 
ROOT
ATOM      1  C   UNL d   1      -9.621  13.575  31.125  0.00  0.00    -0.033 A 
ATOM      2  C   UNL d   1      -9.215  13.071  30.363  0.00  0.00     0.050 A 
ATOM      3  C   UNL d   1      -9.321  14.508  31.325  0.00  0.00     0.014 A 
ATOM      4  C   UNL d   1      -8.508  13.500  29.800  0.00  0.00     0.099 A 
ATOM      5  C   UNL d   1      -8.208  14.433  30.000  0.00  0.00     0.098 A 
ATOM      6  C   UNL d   1      -8.614  14.937  30.762  0.00  0.00     0.040 A 
ENDROOT
BRANCH   1   7
ATOM      7  C   UNL d   1     -10.328  13.146  31.688  0.00  0.00     0.018 C 
BRANCH   7   8
ATOM      8  C   UNL d   1     -10.171  12.242  32.084  0.00  0.00     0.082 C 
BRANCH   8   9
ATOM      9  C   UNL d   1     -10.801  11.881  32.771  0.00  0.00     0.165 C 
ATOM     10  O   UNL d   1     -11.565  12.441  33.093  0.00  0.00    -0.647 OA
BRANCH   9  11
ATOM     11  O   UNL d   1     -10.668  10.960  33.138  0.00  0.00    -0.773 OA
ATOM     12  H   UNL d   1     -10.099  10.714  33.157  0.00  0.00     0.167 HD
ENDBRANCH   9  11
ENDBRANCH   8   9
ENDBRANCH   7   8
ENDBRANCH   1   7
BRANCH   4  13
ATOM     13  O   UNL d   1      -8.102  12.996  29.038  0.00  0.00    -0.358 OA
ATOM     14  H   UNL d   1      -7.715  13.283  28.648  0.00  0.00     0.217 HD
ENDBRANCH   4  13
BRANCH   5  15
ATOM     15  O   UNL d   1      -7.501  14.862  29.437  0.00  0.00    -0.358 OA
ATOM     16  H   UNL d   1      -7.642  15.349  29.081  0.00  0.00     0.217 HD
ENDBRANCH   5  15
TORSDOF 6
ENDMDL
