MODEL 1
REMARK VINA RESULT:    -6.263      0.000      0.000
REMARK INTER + INTRA:          -6.909
REMARK INTER:                  -7.967
REMARK INTRA:                   1.058
REMARK UNBOUND:                 1.001
REMARK  6 active torsions:
REMARK  status: ('A' for Active; 'I' for Inactive)
REMARK    1  A    between atoms: O_1  and  C_8 
REMARK    2  A    between atoms: O_2  and  C_9 
REMARK    3  A    between atoms: O_3  and  C_13 
REMARK    4  A    between atoms: C_5  and  C_11 
REMARK    5  A    between atoms: C_11  and  C_12 
REMARK    6  A    between atoms: C_12  and  C_13 
ROOT
ATOM      1  C   UNL d   1     -22.575 -12.080  29.126  0.00  0.00    -0.033 A 
ATOM      2  C   UNL d   1     -21.581 -12.168  29.062  0.00  0.00     0.050 A 
ATOM      3  C   UNL d   1     -23.106 -12.762  29.629  0.00  0.00     0.014 A 
ATOM      4  C   UNL d   1     -21.118 -12.938  29.502  0.00  0.00     0.099 A 
ATOM      5  C   UNL d   1     -21.649 -13.619  30.005  0.00  0.00     0.098 A 
ATOM      6  C   UNL d   1     -22.643 -13.532  30.068  0.00  0.00     0.040 A 
ENDROOT
BRANCH   1   7
ATOM      7  C   UNL d   1     -23.038 -11.310  28.687  0.00  0.00     0.018 C 
BRANCH   7   8
ATOM      8  C   UNL d   1     -22.613 -10.405  28.688  0.00  0.00     0.082 C 
BRANCH   8   9
ATOM      9  C   UNL d   1     -23.150  -9.600  28.432  0.00  0.00     0.165 C 
ATOM     10  O   UNL d   1     -23.643  -9.584  27.563  0.00  0.00    -0.647 OA
BRANCH   9  11
ATOM     11  O   UNL d   1     -23.193  -8.813  29.047  0.00  0.00    -0.773 OA
ATOM     12  H   UNL d   1     -22.741  -8.716  29.460  0.00  0.00     0.167 HD
ENDBRANCH   9  11
ENDBRANCH   8   9
ENDBRANCH   7   8
ENDBRANCH   1   7
BRANCH   4  13
ATOM     13  O   UNL d   1     -20.124 -13.025  29.438  0.00  0.00    -0.358 OA
ATOM     14  H   UNL d   1     -19.845 -12.996  28.885  0.00  0.00     0.217 HD
ENDBRANCH   4  13
BRANCH   5  15
ATOM     15  O   UNL d   1     -21.186 -14.389  30.444  0.00  0.00    -0.358 OA
ATOM     16  H   UNL d   1     -20.674 -14.292  30.779  0.00  0.00     0.217 HD
ENDBRANCH   5  15
TORSDOF 6
ENDMDL
MODEL 2
REMARK VINA RESULT:    -5.958     23.893     24.502
REMARK INTER + INTRA:          -6.524
REMARK INTER:                  -7.542
REMARK INTRA:                   1.017
REMARK UNBOUND:                 1.001
REMARK  6 active torsions:
REMARK  status: ('A' for Active; 'I' for Inactive)
REMARK    1  A    between atoms: O_1  and  C_8 
REMARK    2  A    between atoms: O_2  and  C_9 
REMARK    3  A    between atoms: O_3  and  C_13 
REMARK    4  A    between atoms: C_5  and  C_11 
REMARK    5  A    between atoms: C_11  and  C_12 
REMARK    6  A    between atoms: C_12  and  C_13 
ROOT
ATOM      1  C   UNL d   1     -11.796 -16.287   7.425  0.00  0.00    -0.033 A 
ATOM      2  C   UNL d   1     -12.063 -17.039   8.027  0.00  0.00     0.050 A 
ATOM      3  C   UNL d   1     -12.408 -15.992   6.691  0.00  0.00     0.014 A 
ATOM      4  C   UNL d   1     -12.942 -17.497   7.895  0.00  0.00     0.099 A 
ATOM      5  C   UNL d   1     -13.554 -17.203   7.162  0.00  0.00     0.098 A 
ATOM      6  C   UNL d   1     -13.287 -16.451   6.559  0.00  0.00     0.040 A 
ENDROOT
BRANCH   1   7
ATOM      7  C   UNL d   1     -10.917 -15.828   7.556  0.00  0.00     0.018 C 
BRANCH   7   8
ATOM      8  C   UNL d   1     -10.883 -14.836   7.670  0.00  0.00     0.082 C 
BRANCH   8   9
ATOM      9  C   UNL d   1     -10.048 -14.399   8.006  0.00  0.00     0.165 C 
ATOM     10  O   UNL d   1     -10.030 -13.990   8.918  0.00  0.00    -0.647 OA
BRANCH   9  11
ATOM     11  O   UNL d   1      -9.231 -14.373   7.430  0.00  0.00    -0.773 OA
ATOM     12  H   UNL d   1      -9.015 -13.830   7.223  0.00  0.00     0.167 HD
ENDBRANCH   9  11
ENDBRANCH   8   9
ENDBRANCH   7   8
ENDBRANCH   1   7
BRANCH   4  13
ATOM     13  O   UNL d   1     -13.209 -18.249   8.498  0.00  0.00    -0.358 OA
ATOM     14  H   UNL d   1     -12.811 -18.461   8.925  0.00  0.00     0.217 HD
ENDBRANCH   4  13
BRANCH   5  15
ATOM     15  O   UNL d   1     -14.433 -17.661   7.030  0.00  0.00    -0.358 OA
ATOM     16  H   UNL d   1     -14.598 -18.129   7.402  0.00  0.00     0.217 HD
ENDBRANCH   5  15
TORSDOF 6
ENDMDL
MODEL 3
REMARK VINA RESULT:    -5.769     14.858     16.107
REMARK INTER + INTRA:          -6.286
REMARK INTER:                  -7.328
REMARK INTRA:                   1.043
REMARK UNBOUND:                 1.001
REMARK  6 active torsions:
REMARK  status: ('A' for Active; 'I' for Inactive)
REMARK    1  A    between atoms: O_1  and  C_8 
REMARK    2  A    between atoms: O_2  and  C_9 
REMARK    3  A    between atoms: O_3  and  C_13 
REMARK    4  A    between atoms: C_5  and  C_11 
REMARK    5  A    between atoms: C_11  and  C_12 
REMARK    6  A    between atoms: C_12  and  C_13 
ROOT
ATOM      1  C   UNL d   1     -27.404 -11.508  14.118  0.00  0.00    -0.033 A 
ATOM      2  C   UNL d   1     -26.869 -12.308  13.846  0.00  0.00     0.050 A 
ATOM      3  C   UNL d   1     -28.128 -11.164  13.519  0.00  0.00     0.014 A 
ATOM      4  C   UNL d   1     -27.057 -12.763  12.976  0.00  0.00     0.099 A 
ATOM      5  C   UNL d   1     -27.780 -12.419  12.378  0.00  0.00     0.098 A 
ATOM      6  C   UNL d   1     -28.316 -11.620  12.649  0.00  0.00     0.040 A 
ENDROOT
BRANCH   1   7
ATOM      7  C   UNL d   1     -27.216 -11.052  14.988  0.00  0.00     0.018 C 
BRANCH   7   8
ATOM      8  C   UNL d   1     -27.852 -11.154  15.753  0.00  0.00     0.082 C 
BRANCH   8   9
ATOM      9  C   UNL d   1     -27.606 -10.805  16.657  0.00  0.00     0.165 C 
ATOM     10  O   UNL d   1     -26.875 -10.129  16.751  0.00  0.00    -0.647 OA
BRANCH   9  11
ATOM     11  O   UNL d   1     -28.090 -11.132  17.469  0.00  0.00    -0.773 OA
ATOM     12  H   UNL d   1     -28.180 -10.753  17.950  0.00  0.00     0.167 HD
ENDBRANCH   9  11
ENDBRANCH   8   9
ENDBRANCH   7   8
ENDBRANCH   1   7
BRANCH   4  13
ATOM     13  O   UNL d   1     -26.521 -13.563  12.705  0.00  0.00    -0.358 OA
ATOM     14  H   UNL d   1     -25.915 -13.505  12.587  0.00  0.00     0.217 HD
ENDBRANCH   4  13
BRANCH   5  15
ATOM     15  O   UNL d   1     -27.968 -12.875  11.508  0.00  0.00    -0.358 OA
ATOM     16  H   UNL d   1     -28.491 -12.751  11.199  0.00  0.00     0.217 HD
ENDBRANCH   5  15
TORSDOF 6
ENDMDL
MODEL 4
REMARK VINA RESULT:    -5.719     13.835     15.283
REMARK INTER + INTRA:          -6.223
REMARK INTER:                  -7.258
REMARK INTRA:                   1.035
REMARK UNBOUND:                 1.001
REMARK  6 active torsions:
REMARK  status: ('A' for Active; 'I' for Inactive)
REMARK    1  A    between atoms: O_1  and  C_8 
REMARK    2  A    between atoms: O_2  and  C_9 
REMARK    3  A    between atoms: O_3  and  C_13 
REMARK    4  A    between atoms: C_5  and  C_11 
REMARK    5  A    between atoms: C_11  and  C_12 
REMARK    6  A    between atoms: C_12  and  C_13 
ROOT
ATOM      1  C   UNL d   1     -26.999 -10.976  15.131  0.00  0.00    -0.033 A 
ATOM      2  C   UNL d   1     -27.016 -11.302  16.076  0.00  0.00     0.050 A 
ATOM      3  C   UNL d   1     -27.201 -10.018  14.929  0.00  0.00     0.014 A 
ATOM      4  C   UNL d   1     -27.235 -10.670  16.819  0.00  0.00     0.099 A 
ATOM      5  C   UNL d   1     -27.437  -9.712  16.617  0.00  0.00     0.098 A 
ATOM      6  C   UNL d   1     -27.420  -9.386  15.672  0.00  0.00     0.040 A 
ENDROOT
BRANCH   1   7
ATOM      7  C   UNL d   1     -26.781 -11.609  14.388  0.00  0.00     0.018 C 
BRANCH   7   8
ATOM      8  C   UNL d   1     -27.516 -12.041  13.866  0.00  0.00     0.082 C 
BRANCH   8   9
ATOM      9  C   UNL d   1     -27.297 -12.662  13.113  0.00  0.00     0.165 C 
ATOM     10  O   UNL d   1     -28.021 -12.980  12.501  0.00  0.00    -0.647 OA
BRANCH   9  11
ATOM     11  O   UNL d   1     -26.355 -12.965  12.973  0.00  0.00    -0.773 OA
ATOM     12  H   UNL d   1     -25.946 -12.588  12.699  0.00  0.00     0.167 HD
ENDBRANCH   9  11
ENDBRANCH   8   9
ENDBRANCH   7   8
ENDBRANCH   1   7
BRANCH   4  13
ATOM     13  O   UNL d   1     -27.252 -10.996  17.765  0.00  0.00    -0.358 OA
ATOM     14  H   UNL d   1     -27.070 -11.574  17.897  0.00  0.00     0.217 HD
ENDBRANCH   4  13
BRANCH   5  15
ATOM     15  O   UNL d   1     -27.656  -9.079  17.360  0.00  0.00    -0.358 OA
ATOM     16  H   UNL d   1     -27.669  -8.468  17.254  0.00  0.00     0.217 HD
ENDBRANCH   5  15
TORSDOF 6
ENDMDL
MODEL 5
REMARK VINA RESULT:    -5.620      1.010      4.303
REMARK INTER + INTRA:          -6.098
REMARK INTER:                  -7.053
REMARK INTRA:                   0.955
REMARK UNBOUND:                 1.001
REMARK  6 active torsions:
REMARK  status: ('A' for Active; 'I' for Inactive)
REMARK    1  A    between atoms: O_1  and  C_8 
REMARK    2  A    between atoms: O_2  and  C_9 
REMARK    3  A    between atoms: O_3  and  C_13 
REMARK    4  A    between atoms: C_5  and  C_11 
REMARK    5  A    between atoms: C_11  and  C_12 
REMARK    6  A    between atoms: C_12  and  C_13 
ROOT
ATOM      1  C   UNL d   1     -23.178 -11.215  29.269  0.00  0.00    -0.033 A 
ATOM      2  C   UNL d   1     -24.110 -11.042  28.950  0.00  0.00     0.050 A 
ATOM      3  C   UNL d   1     -22.442 -10.582  29.030  0.00  0.00     0.014 A 
ATOM      4  C   UNL d   1     -24.305 -10.236  28.392  0.00  0.00     0.099 A 
ATOM      5  C   UNL d   1     -23.569  -9.603  28.153  0.00  0.00     0.098 A 
ATOM      6  C   UNL d   1     -22.637  -9.776  28.472  0.00  0.00     0.040 A 
ENDROOT
BRANCH   1   7
ATOM      7  C   UNL d   1     -22.982 -12.022  29.828  0.00  0.00     0.018 C 
BRANCH   7   8
ATOM      8  C   UNL d   1     -22.454 -12.779  29.444  0.00  0.00     0.082 C 
BRANCH   8   9
ATOM      9  C   UNL d   1     -22.333 -13.621  29.970  0.00  0.00     0.165 C 
ATOM     10  O   UNL d   1     -22.966 -14.385  29.843  0.00  0.00    -0.647 OA
BRANCH   9  11
ATOM     11  O   UNL d   1     -21.580 -13.699  30.622  0.00  0.00    -0.773 OA
ATOM     12  H   UNL d   1     -21.158 -14.148  30.557  0.00  0.00     0.167 HD
ENDBRANCH   9  11
ENDBRANCH   8   9
ENDBRANCH   7   8
ENDBRANCH   1   7
BRANCH   4  13
ATOM     13  O   UNL d   1     -25.237 -10.063  28.073  0.00  0.00    -0.358 OA
ATOM     14  H   UNL d   1     -25.552 -10.508  27.778  0.00  0.00     0.217 HD
ENDBRANCH   4  13
BRANCH   5  15
ATOM     15  O   UNL d   1     -23.765  -8.797  27.594  0.00  0.00    -0.358 OA
ATOM     16  H   UNL d   1     -23.378  -8.312  27.603  0.00  0.00     0.217 HD
ENDBRANCH   5  15
TORSDOF 6
ENDMDL
