MODEL 1
REMARK VINA RESULT:    -6.115      0.000      0.000
REMARK INTER + INTRA:          -6.115
REMARK INTER:                  -6.115
REMARK INTRA:                   0.000
REMARK UNBOUND:                 0.000
REMARK  0 active torsions:
REMARK  status: ('A' for Active; 'I' for Inactive)
ROOT
ATOM      1  N   UNL d   1       3.329  -9.711   5.860  0.00  0.00    -0.420 N 
ATOM      2  C   UNL d   1       2.202 -11.031   4.726  0.00  0.00    -0.021 A 
ATOM      3  C   UNL d   1       0.681 -10.448   5.899  0.00  0.00    -0.034 A 
ATOM      4  C   UNL d   1       1.241 -11.072   5.000  0.00  0.00     0.011 A 
ATOM      5  C   UNL d   1       2.066 -12.029   3.631  0.00  0.00     0.012 A 
ATOM      6  C   UNL d   1       1.105 -12.069   3.905  0.00  0.00     0.008 A 
ATOM      7  C   UNL d   1       3.476 -10.338   5.094  0.00  0.00     0.123 A 
ATOM      8  C   UNL d   1       2.366  -9.763   6.121  0.00  0.00     0.119 A 
ATOM      9  C   UNL d   1       3.162 -10.990   4.453  0.00  0.00     0.018 C 
ATOM     10  C   UNL d   1      -0.240 -10.382   6.281  0.00  0.00     0.016 C 
ATOM     11  C   UNL d   1       0.704  -9.786   6.648  0.00  0.00     0.016 C 
ATOM     12  H   UNL d   1       3.760  -9.352   6.126  0.00  0.00     0.153 HD
ENDROOT
TORSDOF 0
ENDMDL
MODEL 2
REMARK VINA RESULT:    -6.069      3.150      4.766
REMARK INTER + INTRA:          -6.069
REMARK INTER:                  -6.069
REMARK INTRA:                   0.000
REMARK UNBOUND:                 0.000
REMARK  0 active torsions:
REMARK  status: ('A' for Active; 'I' for Inactive)
ROOT
ATOM      1  N   UNL d   1       5.028 -10.686   7.818  0.00  0.00    -0.420 N 
ATOM      2  C   UNL d   1       4.618  -8.771   8.496  0.00  0.00    -0.021 A 
ATOM      3  C   UNL d   1       3.147  -8.804   7.132  0.00  0.00    -0.034 A 
ATOM      4  C   UNL d   1       3.847  -8.339   8.028  0.00  0.00     0.011 A 
ATOM      5  C   UNL d   1       4.893  -7.611   9.387  0.00  0.00     0.012 A 
ATOM      6  C   UNL d   1       4.122  -7.180   8.919  0.00  0.00     0.008 A 
ATOM      7  C   UNL d   1       5.392 -10.052   8.500  0.00  0.00     0.123 A 
ATOM      8  C   UNL d   1       4.260 -10.241   7.360  0.00  0.00     0.119 A 
ATOM      9  C   UNL d   1       5.388  -9.203   8.964  0.00  0.00     0.018 C 
ATOM     10  C   UNL d   1       2.367  -8.506   6.582  0.00  0.00     0.016 C 
ATOM     11  C   UNL d   1       2.908  -9.546   6.505  0.00  0.00     0.016 C 
ATOM     12  H   UNL d   1       5.242 -11.256   7.700  0.00  0.00     0.153 HD
ENDROOT
TORSDOF 0
ENDMDL
MODEL 3
REMARK VINA RESULT:    -6.027      1.048      2.453
REMARK INTER + INTRA:          -6.027
REMARK INTER:                  -6.027
REMARK INTRA:                   0.000
REMARK UNBOUND:                 0.000
REMARK  0 active torsions:
REMARK  status: ('A' for Active; 'I' for Inactive)
ROOT
ATOM      1  N   UNL d   1       3.477 -11.061   3.973  0.00  0.00    -0.420 N 
ATOM      2  C   UNL d   1       2.312 -10.348   5.532  0.00  0.00    -0.021 A 
ATOM      3  C   UNL d   1       0.886 -11.532   4.763  0.00  0.00    -0.034 A 
ATOM      4  C   UNL d   1       1.386 -10.725   5.543  0.00  0.00     0.011 A 
ATOM      5  C   UNL d   1       2.120  -9.500   6.741  0.00  0.00     0.012 A 
ATOM      6  C   UNL d   1       1.194  -9.878   6.751  0.00  0.00     0.008 A 
ATOM      7  C   UNL d   1       3.580 -10.429   4.741  0.00  0.00     0.123 A 
ATOM      8  C   UNL d   1       2.547 -11.429   3.998  0.00  0.00     0.119 A 
ATOM      9  C   UNL d   1       3.238  -9.972   5.521  0.00  0.00     0.018 C 
ATOM     10  C   UNL d   1       0.005 -11.989   4.646  0.00  0.00     0.016 C 
ATOM     11  C   UNL d   1       0.949 -12.124   3.959  0.00  0.00     0.016 C 
ATOM     12  H   UNL d   1       3.913 -11.201   3.555  0.00  0.00     0.153 HD
ENDROOT
TORSDOF 0
ENDMDL
MODEL 4
REMARK VINA RESULT:    -5.992     24.289     25.701
REMARK INTER + INTRA:          -5.992
REMARK INTER:                  -5.992
REMARK INTRA:                   0.000
REMARK UNBOUND:                 0.000
REMARK  0 active torsions:
REMARK  status: ('A' for Active; 'I' for Inactive)
ROOT
ATOM      1  N   UNL d   1      -9.570  12.246  11.569  0.00  0.00    -0.420 N 
ATOM      2  C   UNL d   1      -8.267  11.610  10.087  0.00  0.00    -0.021 A 
ATOM      3  C   UNL d   1      -7.713  13.538  10.007  0.00  0.00    -0.034 A 
ATOM      4  C   UNL d   1      -7.709  12.347   9.704  0.00  0.00     0.011 A 
ATOM      5  C   UNL d   1      -7.683  10.546   9.227  0.00  0.00     0.012 A 
ATOM      6  C   UNL d   1      -7.125  11.282   8.844  0.00  0.00     0.008 A 
ATOM      7  C   UNL d   1      -9.333  11.388  11.113  0.00  0.00     0.123 A 
ATOM      8  C   UNL d   1      -9.004  12.970  11.176  0.00  0.00     0.119 A 
ATOM      9  C   UNL d   1      -8.825  10.875  10.469  0.00  0.00     0.018 C 
ATOM     10  C   UNL d   1      -7.232  14.367   9.725  0.00  0.00     0.016 C 
ATOM     11  C   UNL d   1      -8.063  14.299  10.553  0.00  0.00     0.016 C 
ATOM     12  H   UNL d   1      -9.993  12.316  12.017  0.00  0.00     0.153 HD
ENDROOT
TORSDOF 0
ENDMDL
MODEL 5
REMARK VINA RESULT:    -5.990      1.060      2.291
REMARK INTER + INTRA:          -5.990
REMARK INTER:                  -5.990
REMARK INTRA:                   0.000
REMARK UNBOUND:                 0.000
REMARK  0 active torsions:
REMARK  status: ('A' for Active; 'I' for Inactive)
ROOT
ATOM      1  N   UNL d   1       3.166 -11.402   3.874  0.00  0.00    -0.420 N 
ATOM      2  C   UNL d   1       1.421 -11.170   4.969  0.00  0.00    -0.021 A 
ATOM      3  C   UNL d   1       2.476  -9.818   6.012  0.00  0.00    -0.034 A 
ATOM      4  C   UNL d   1       1.498 -10.495   5.703  0.00  0.00     0.011 A 
ATOM      5  C   UNL d   1       0.001 -11.510   5.255  0.00  0.00     0.012 A 
ATOM      6  C   UNL d   1       0.079 -10.835   5.989  0.00  0.00     0.008 A 
ATOM      7  C   UNL d   1       2.241 -11.783   3.878  0.00  0.00     0.123 A 
ATOM      8  C   UNL d   1       3.227 -10.731   4.612  0.00  0.00     0.119 A 
ATOM      9  C   UNL d   1       1.344 -11.844   4.235  0.00  0.00     0.018 C 
ATOM     10  C   UNL d   1       2.701  -9.126   6.696  0.00  0.00     0.016 C 
ATOM     11  C   UNL d   1       3.428  -9.544   5.873  0.00  0.00     0.016 C 
ATOM     12  H   UNL d   1       3.622 -11.555   3.482  0.00  0.00     0.153 HD
ENDROOT
TORSDOF 0
ENDMDL
