MODEL 1
REMARK VINA RESULT:   -10.130      0.000      0.000
REMARK INTER + INTRA:         -11.190
REMARK INTER:                 -12.648
REMARK INTRA:                   1.458
REMARK UNBOUND:                 1.309
REMARK  6 active torsions:
REMARK  status: ('A' for Active; 'I' for Inactive)
REMARK    1  A    between atoms: C_22  and  O_1 
REMARK    2  A    between atoms: C_24  and  O_2 
REMARK    3  A    between atoms: O_3  and  C_30 
REMARK    4  A    between atoms: O_4  and  C_33 
REMARK    5  A    between atoms: C_14  and  C_30 
REMARK    6  A    between atoms: C_19  and  C_33 
ROOT
ATOM      1  C   UNL d   1     -21.440   1.059  25.123  0.00  0.00    -0.028 A 
ATOM      2  C   UNL d   1     -22.050   1.791  24.820  0.00  0.00     0.007 A 
ATOM      3  C   UNL d   1     -22.833   1.596  24.161  0.00  0.00    -0.033 A 
ATOM      4  C   UNL d   1     -20.692   1.261  25.756  0.00  0.00    -0.013 A 
ATOM      5  C   UNL d   1     -22.982   0.626  23.813  0.00  0.00     0.007 A 
ATOM      6  C   UNL d   1     -21.570   0.082  24.788  0.00  0.00     0.011 A 
ATOM      7  C   UNL d   1     -20.555   2.195  26.086  0.00  0.00    -0.069 A 
ATOM      8  C   UNL d   1     -22.346  -0.137  24.129  0.00  0.00     0.007 A 
ATOM      9  C   UNL d   1     -23.791   0.399  23.126  0.00  0.00     0.010 A 
ATOM     10  C   UNL d   1     -19.781   2.421  26.746  0.00  0.00     0.038 A 
ATOM     11  C   UNL d   1     -21.913   2.725  25.150  0.00  0.00     0.033 A 
ATOM     12  C   UNL d   1     -23.482   2.406  23.847  0.00  0.00     0.044 A 
ATOM     13  C   UNL d   1     -20.065   0.488  26.063  0.00  0.00     0.016 A 
ATOM     14  C   UNL d   1     -19.141   1.664  27.066  0.00  0.00     0.053 A 
ATOM     15  C   UNL d   1     -21.040   0.147  25.218  0.00  0.00     0.016 C 
ATOM     16  C   UNL d   1     -19.284   0.691  26.722  0.00  0.00     0.022 A 
ATOM     17  C   UNL d   1     -24.452   1.192  22.798  0.00  0.00     0.157 A 
ATOM     18  C   UNL d   1     -21.166   2.927  25.783  0.00  0.00    -0.022 A 
ATOM     19  C   UNL d   1     -24.298   2.203  23.160  0.00  0.00     0.148 A 
ATOM     20  C   UNL d   1     -22.690   2.527  24.496  0.00  0.00     0.016 C 
ATOM     21  C   UNL d   1     -20.553   0.279  25.631  0.00  0.00     0.021 C 
ATOM     22  C   UNL d   1     -19.652   3.441  27.090  0.00  0.00    -0.005 A 
ATOM     23  C   UNL d   1     -18.328   1.875  27.752  0.00  0.00     0.021 A 
ATOM     24  C   UNL d   1     -18.846   3.677  27.777  0.00  0.00    -0.014 A 
ATOM     25  C   UNL d   1     -23.514  -0.563  23.113  0.00  0.00     0.020 C 
ATOM     26  C   UNL d   1     -18.180   2.888  28.111  0.00  0.00     0.006 A 
ATOM     27  C   UNL d   1     -20.273   4.161  26.777  0.00  0.00     0.011 C 
ATOM     28  C   UNL d   1     -18.719   4.614  28.101  0.00  0.00     0.010 C 
ENDROOT
BRANCH   9  29
ATOM     29  C   UNL d   1     -24.298  -0.260  22.571  0.00  0.00     0.176 C 
BRANCH  29  30
ATOM     30  O   UNL d   1     -23.807  -0.938  22.024  0.00  0.00    -0.400 OA
ATOM     31  H   UNL d   1     -23.666  -1.490  22.268  0.00  0.00     0.209 HD
ENDBRANCH  29  30
ENDBRANCH   9  29
BRANCH  17  32
ATOM     32  O   UNL d   1     -25.201   0.994  22.165  0.00  0.00    -0.392 OA
ATOM     33  H   UNL d   1     -25.198   1.239  21.595  0.00  0.00     0.210 HD
ENDBRANCH  17  32
BRANCH  19  34
ATOM     34  O   UNL d   1     -24.902   2.942  22.864  0.00  0.00    -0.393 OA
ATOM     35  H   UNL d   1     -24.672   3.421  22.544  0.00  0.00     0.210 HD
ENDBRANCH  19  34
BRANCH  14  36
ATOM     36  C   UNL d   1     -18.527   0.938  27.373  0.00  0.00     0.149 C 
ATOM     37  O   UNL d   1     -18.628   0.554  28.291  0.00  0.00    -0.649 OA
BRANCH  36  38
ATOM     38  O   UNL d   1     -17.813   0.595  26.764  0.00  0.00    -0.776 OA
ATOM     39  H   UNL d   1     -17.740   0.844  26.200  0.00  0.00     0.167 HD
ENDBRANCH  36  38
ENDBRANCH  14  36
TORSDOF 6
ENDMDL
MODEL 2
REMARK VINA RESULT:   -10.004      1.531      5.776
REMARK INTER + INTRA:         -11.034
REMARK INTER:                 -12.350
REMARK INTRA:                   1.316
REMARK UNBOUND:                 1.309
REMARK  6 active torsions:
REMARK  status: ('A' for Active; 'I' for Inactive)
REMARK    1  A    between atoms: C_22  and  O_1 
REMARK    2  A    between atoms: C_24  and  O_2 
REMARK    3  A    between atoms: O_3  and  C_30 
REMARK    4  A    between atoms: O_4  and  C_33 
REMARK    5  A    between atoms: C_14  and  C_30 
REMARK    6  A    between atoms: C_19  and  C_33 
ROOT
ATOM      1  C   UNL d   1     -21.654   2.349  25.333  0.00  0.00    -0.028 A 
ATOM      2  C   UNL d   1     -21.165   3.044  25.860  0.00  0.00     0.007 A 
ATOM      3  C   UNL d   1     -20.285   2.811  26.366  0.00  0.00    -0.033 A 
ATOM      4  C   UNL d   1     -22.497   2.588  24.851  0.00  0.00    -0.013 A 
ATOM      5  C   UNL d   1     -19.910   1.841  26.323  0.00  0.00     0.007 A 
ATOM      6  C   UNL d   1     -21.296   1.373  25.275  0.00  0.00     0.011 A 
ATOM      7  C   UNL d   1     -22.852   3.521  24.897  0.00  0.00    -0.069 A 
ATOM      8  C   UNL d   1     -20.418   1.117  25.774  0.00  0.00     0.007 A 
ATOM      9  C   UNL d   1     -18.995   1.574  26.843  0.00  0.00     0.010 A 
ATOM     10  C   UNL d   1     -23.730   3.785  24.401  0.00  0.00     0.038 A 
ATOM     11  C   UNL d   1     -21.520   3.978  25.906  0.00  0.00     0.033 A 
ATOM     12  C   UNL d   1     -19.773   3.582  26.932  0.00  0.00     0.044 A 
ATOM     13  C   UNL d   1     -22.995   1.852  24.306  0.00  0.00     0.016 A 
ATOM     14  C   UNL d   1     -24.244   3.066  23.850  0.00  0.00     0.053 A 
ATOM     15  C   UNL d   1     -21.876   1.464  24.923  0.00  0.00     0.016 C 
ATOM     16  C   UNL d   1     -23.874   2.093  23.802  0.00  0.00     0.022 A 
ATOM     17  C   UNL d   1     -18.465   2.328  27.414  0.00  0.00     0.157 A 
ATOM     18  C   UNL d   1     -22.364   4.217  25.424  0.00  0.00    -0.022 A 
ATOM     19  C   UNL d   1     -18.856   3.339  27.460  0.00  0.00     0.148 A 
ATOM     20  C   UNL d   1     -20.646   3.743  26.408  0.00  0.00     0.016 C 
ATOM     21  C   UNL d   1     -22.427   1.620  24.609  0.00  0.00     0.021 C 
ATOM     22  C   UNL d   1     -24.095   4.804  24.466  0.00  0.00    -0.005 A 
ATOM     23  C   UNL d   1     -25.160   3.317  23.325  0.00  0.00     0.021 A 
ATOM     24  C   UNL d   1     -25.009   5.079  23.949  0.00  0.00    -0.014 A 
ATOM     25  C   UNL d   1     -19.075   0.635  26.510  0.00  0.00     0.020 C 
ATOM     26  C   UNL d   1     -25.545   4.330  23.375  0.00  0.00     0.006 A 
ATOM     27  C   UNL d   1     -23.593   5.487  24.998  0.00  0.00     0.011 C 
ATOM     28  C   UNL d   1     -25.355   6.015  24.002  0.00  0.00     0.010 C 
ENDROOT
BRANCH   9  29
ATOM     29  C   UNL d   1     -18.305   0.895  27.092  0.00  0.00     0.176 C 
BRANCH  29  30
ATOM     30  O   UNL d   1     -18.078   0.156  26.457  0.00  0.00    -0.400 OA
ATOM     31  H   UNL d   1     -18.415  -0.365  26.455  0.00  0.00     0.209 HD
ENDBRANCH  29  30
ENDBRANCH   9  29
BRANCH  17  32
ATOM     32  O   UNL d   1     -17.621   2.094  27.897  0.00  0.00    -0.392 OA
ATOM     33  H   UNL d   1     -17.335   1.556  27.779  0.00  0.00     0.210 HD
ENDBRANCH  17  32
BRANCH  19  34
ATOM     34  O   UNL d   1     -18.376   4.042  27.984  0.00  0.00    -0.393 OA
ATOM     35  H   UNL d   1     -18.512   4.641  27.897  0.00  0.00     0.210 HD
ENDBRANCH  19  34
BRANCH  14  36
ATOM     36  C   UNL d   1     -24.738   2.377  23.321  0.00  0.00     0.149 C 
ATOM     37  O   UNL d   1     -25.426   1.804  23.767  0.00  0.00    -0.649 OA
BRANCH  36  38
ATOM     38  O   UNL d   1     -24.544   2.259  22.348  0.00  0.00    -0.776 OA
ATOM     39  H   UNL d   1     -25.009   2.249  21.938  0.00  0.00     0.167 HD
ENDBRANCH  36  38
ENDBRANCH  14  36
TORSDOF 6
ENDMDL
MODEL 3
REMARK VINA RESULT:    -9.825     27.466     30.117
REMARK INTER + INTRA:         -10.813
REMARK INTER:                 -12.136
REMARK INTRA:                   1.323
REMARK UNBOUND:                 1.309
REMARK  6 active torsions:
REMARK  status: ('A' for Active; 'I' for Inactive)
REMARK    1  A    between atoms: C_22  and  O_1 
REMARK    2  A    between atoms: C_24  and  O_2 
REMARK    3  A    between atoms: O_3  and  C_30 
REMARK    4  A    between atoms: O_4  and  C_33 
REMARK    5  A    between atoms: C_14  and  C_30 
REMARK    6  A    between atoms: C_19  and  C_33 
ROOT
ATOM      1  C   UNL d   1       7.248   5.479  18.152  0.00  0.00    -0.028 A 
ATOM      2  C   UNL d   1       8.074   4.973  17.902  0.00  0.00     0.007 A 
ATOM      3  C   UNL d   1       8.846   5.434  17.378  0.00  0.00    -0.033 A 
ATOM      4  C   UNL d   1       6.515   5.023  18.655  0.00  0.00    -0.013 A 
ATOM      5  C   UNL d   1       8.758   6.436  17.110  0.00  0.00     0.007 A 
ATOM      6  C   UNL d   1       7.139   6.482  17.894  0.00  0.00     0.011 A 
ATOM      7  C   UNL d   1       6.607   4.060  18.909  0.00  0.00    -0.069 A 
ATOM      8  C   UNL d   1       7.898   6.964  17.370  0.00  0.00     0.007 A 
ATOM      9  C   UNL d   1       9.550   6.939  16.563  0.00  0.00     0.010 A 
ATOM     10  C   UNL d   1       5.851   3.571  19.434  0.00  0.00     0.038 A 
ATOM     11  C   UNL d   1       8.165   4.010  18.156  0.00  0.00     0.033 A 
ATOM     12  C   UNL d   1       9.733   4.865  17.118  0.00  0.00     0.044 A 
ATOM     13  C   UNL d   1       5.661   5.564  18.908  0.00  0.00     0.016 A 
ATOM     14  C   UNL d   1       4.988   4.092  19.697  0.00  0.00     0.053 A 
ATOM     15  C   UNL d   1       6.599   6.235  18.237  0.00  0.00     0.016 C 
ATOM     16  C   UNL d   1       4.893   5.095  19.432  0.00  0.00     0.022 A 
ATOM     17  C   UNL d   1      10.445   6.390  16.293  0.00  0.00     0.157 A 
ATOM     18  C   UNL d   1       7.432   3.553  18.660  0.00  0.00    -0.022 A 
ATOM     19  C   UNL d   1      10.537   5.345  16.572  0.00  0.00     0.148 A 
ATOM     20  C   UNL d   1       8.931   4.472  17.635  0.00  0.00     0.016 C 
ATOM     21  C   UNL d   1       6.121   5.938  18.565  0.00  0.00     0.021 C 
ATOM     22  C   UNL d   1       5.973   2.526  19.698  0.00  0.00    -0.005 A 
ATOM     23  C   UNL d   1       4.188   3.604  20.243  0.00  0.00     0.021 A 
ATOM     24  C   UNL d   1       5.186   2.017  20.245  0.00  0.00    -0.014 A 
ATOM     25  C   UNL d   1       9.017   7.785  16.563  0.00  0.00     0.020 C 
ATOM     26  C   UNL d   1       4.287   2.560  20.519  0.00  0.00     0.006 A 
ATOM     27  C   UNL d   1       6.806   2.035  19.440  0.00  0.00     0.011 C 
ATOM     28  C   UNL d   1       5.288   1.054  20.493  0.00  0.00     0.010 C 
ENDROOT
BRANCH   9  29
ATOM     29  C   UNL d   1       9.917   7.760  16.127  0.00  0.00     0.176 C 
BRANCH  29  30
ATOM     30  O   UNL d   1       9.301   8.496  15.848  0.00  0.00    -0.400 OA
ATOM     31  H   UNL d   1       9.201   8.605  15.246  0.00  0.00     0.209 HD
ENDBRANCH  29  30
ENDBRANCH   9  29
BRANCH  17  32
ATOM     32  O   UNL d   1      11.181   6.842  15.789  0.00  0.00    -0.392 OA
ATOM     33  H   UNL d   1      11.751   6.597  15.785  0.00  0.00     0.210 HD
ENDBRANCH  17  32
BRANCH  19  34
ATOM     34  O   UNL d   1      11.358   4.829  16.328  0.00  0.00    -0.393 OA
ATOM     35  H   UNL d   1      11.712   4.580  16.772  0.00  0.00     0.210 HD
ENDBRANCH  19  34
BRANCH  14  36
ATOM     36  C   UNL d   1       4.160   4.592  19.950  0.00  0.00     0.149 C 
ATOM     37  O   UNL d   1       4.086   5.009  20.856  0.00  0.00    -0.649 OA
BRANCH  36  38
ATOM     38  O   UNL d   1       3.407   4.675  19.298  0.00  0.00    -0.776 OA
ATOM     39  H   UNL d   1       3.344   5.191  18.961  0.00  0.00     0.167 HD
ENDBRANCH  36  38
ENDBRANCH  14  36
TORSDOF 6
ENDMDL
MODEL 4
REMARK VINA RESULT:    -9.699      1.066      6.301
REMARK INTER + INTRA:         -10.658
REMARK INTER:                 -11.995
REMARK INTRA:                   1.338
REMARK UNBOUND:                 1.309
REMARK  6 active torsions:
REMARK  status: ('A' for Active; 'I' for Inactive)
REMARK    1  A    between atoms: C_22  and  O_1 
REMARK    2  A    between atoms: C_24  and  O_2 
REMARK    3  A    between atoms: O_3  and  C_30 
REMARK    4  A    between atoms: O_4  and  C_33 
REMARK    5  A    between atoms: C_14  and  C_30 
REMARK    6  A    between atoms: C_19  and  C_33 
ROOT
ATOM      1  C   UNL d   1     -21.663   2.287  25.337  0.00  0.00    -0.028 A 
ATOM      2  C   UNL d   1     -21.028   1.527  25.475  0.00  0.00     0.007 A 
ATOM      3  C   UNL d   1     -20.164   1.648  26.045  0.00  0.00    -0.033 A 
ATOM      4  C   UNL d   1     -22.488   2.156  24.787  0.00  0.00    -0.013 A 
ATOM      5  C   UNL d   1     -19.960   2.573  26.477  0.00  0.00     0.007 A 
ATOM      6  C   UNL d   1     -21.478   3.220  25.759  0.00  0.00     0.011 A 
ATOM      7  C   UNL d   1     -22.678   1.264  24.376  0.00  0.00    -0.069 A 
ATOM      8  C   UNL d   1     -20.621   3.365  26.333  0.00  0.00     0.007 A 
ATOM      9  C   UNL d   1     -19.067   2.723  27.075  0.00  0.00     0.010 A 
ATOM     10  C   UNL d   1     -23.533   1.112  23.800  0.00  0.00     0.038 A 
ATOM     11  C   UNL d   1     -21.218   0.635  25.063  0.00  0.00     0.033 A 
ATOM     12  C   UNL d   1     -19.490   0.809  26.181  0.00  0.00     0.044 A 
ATOM     13  C   UNL d   1     -23.139   2.957  24.652  0.00  0.00     0.016 A 
ATOM     14  C   UNL d   1     -24.199   1.899  23.652  0.00  0.00     0.053 A 
ATOM     15  C   UNL d   1     -22.059   3.203  25.397  0.00  0.00     0.016 C 
ATOM     16  C   UNL d   1     -24.001   2.828  24.081  0.00  0.00     0.022 A 
ATOM     17  C   UNL d   1     -18.378   1.899  27.225  0.00  0.00     0.157 A 
ATOM     18  C   UNL d   1     -22.043   0.504  24.514  0.00  0.00    -0.022 A 
ATOM     19  C   UNL d   1     -18.591   0.935  26.775  0.00  0.00     0.148 A 
ATOM     20  C   UNL d   1     -20.361   0.760  25.630  0.00  0.00     0.016 C 
ATOM     21  C   UNL d   1     -22.597   3.118  25.038  0.00  0.00     0.021 C 
ATOM     22  C   UNL d   1     -23.717   0.137  23.364  0.00  0.00    -0.005 A 
ATOM     23  C   UNL d   1     -25.096   1.765  23.057  0.00  0.00     0.021 A 
ATOM     24  C   UNL d   1     -24.608  -0.022  22.765  0.00  0.00    -0.014 A 
ATOM     25  C   UNL d   1     -19.327   3.677  27.231  0.00  0.00     0.020 C 
ATOM     26  C   UNL d   1     -25.302   0.798  22.610  0.00  0.00     0.006 A 
ATOM     27  C   UNL d   1     -23.071  -0.613  23.512  0.00  0.00     0.011 C 
ATOM     28  C   UNL d   1     -24.788  -0.917  22.358  0.00  0.00     0.010 C 
ENDROOT
BRANCH   9  29
ATOM     29  C   UNL d   1     -18.484   3.317  27.630  0.00  0.00     0.176 C 
BRANCH  29  30
ATOM     30  O   UNL d   1     -18.377   4.281  27.388  0.00  0.00    -0.400 OA
ATOM     31  H   UNL d   1     -18.338   4.710  27.834  0.00  0.00     0.209 HD
ENDBRANCH  29  30
ENDBRANCH   9  29
BRANCH  17  32
ATOM     32  O   UNL d   1     -17.552   2.026  27.774  0.00  0.00    -0.392 OA
ATOM     33  H   UNL d   1     -17.547   1.857  28.370  0.00  0.00     0.210 HD
ENDBRANCH  17  32
BRANCH  19  34
ATOM     34  O   UNL d   1     -17.963   0.169  26.907  0.00  0.00    -0.393 OA
ATOM     35  H   UNL d   1     -18.176  -0.413  26.890  0.00  0.00     0.210 HD
ENDBRANCH  19  34
BRANCH  14  36
ATOM     36  C   UNL d   1     -24.838   2.654  23.509  0.00  0.00     0.149 C 
ATOM     37  O   UNL d   1     -25.553   2.837  24.184  0.00  0.00    -0.649 OA
BRANCH  36  38
ATOM     38  O   UNL d   1     -24.764   3.226  22.693  0.00  0.00    -0.776 OA
ATOM     39  H   UNL d   1     -25.189   3.183  22.244  0.00  0.00     0.167 HD
ENDBRANCH  36  38
ENDBRANCH  14  36
TORSDOF 6
ENDMDL
MODEL 5
REMARK VINA RESULT:    -9.698     15.395     17.546
REMARK INTER + INTRA:         -10.657
REMARK INTER:                 -12.036
REMARK INTRA:                   1.379
REMARK UNBOUND:                 1.309
REMARK  6 active torsions:
REMARK  status: ('A' for Active; 'I' for Inactive)
REMARK    1  A    between atoms: C_22  and  O_1 
REMARK    2  A    between atoms: C_24  and  O_2 
REMARK    3  A    between atoms: O_3  and  C_30 
REMARK    4  A    between atoms: O_4  and  C_33 
REMARK    5  A    between atoms: C_14  and  C_30 
REMARK    6  A    between atoms: C_19  and  C_33 
ROOT
ATOM      1  C   UNL d   1     -20.053 -15.171  21.154  0.00  0.00    -0.028 A 
ATOM      2  C   UNL d   1     -20.318 -16.107  21.386  0.00  0.00     0.007 A 
ATOM      3  C   UNL d   1     -20.328 -16.855  20.662  0.00  0.00    -0.033 A 
ATOM      4  C   UNL d   1     -20.047 -14.463  21.861  0.00  0.00    -0.013 A 
ATOM      5  C   UNL d   1     -20.058 -16.626  19.683  0.00  0.00     0.007 A 
ATOM      6  C   UNL d   1     -19.779 -14.919  20.182  0.00  0.00     0.011 A 
ATOM      7  C   UNL d   1     -20.308 -14.691  22.799  0.00  0.00    -0.069 A 
ATOM      8  C   UNL d   1     -19.782 -15.651  19.441  0.00  0.00     0.007 A 
ATOM      9  C   UNL d   1     -20.061 -17.389  18.910  0.00  0.00     0.010 A 
ATOM     10  C   UNL d   1     -20.308 -13.965  23.546  0.00  0.00     0.038 A 
ATOM     11  C   UNL d   1     -20.579 -16.335  22.325  0.00  0.00     0.033 A 
ATOM     12  C   UNL d   1     -20.620 -17.863  20.937  0.00  0.00     0.044 A 
ATOM     13  C   UNL d   1     -19.768 -13.493  21.603  0.00  0.00     0.016 A 
ATOM     14  C   UNL d   1     -20.032 -12.988  23.311  0.00  0.00     0.053 A 
ATOM     15  C   UNL d   1     -19.753 -14.387  20.612  0.00  0.00     0.016 C 
ATOM     16  C   UNL d   1     -19.761 -12.750  22.334  0.00  0.00     0.022 A 
ATOM     17  C   UNL d   1     -20.349 -18.403  19.162  0.00  0.00     0.157 A 
ATOM     18  C   UNL d   1     -20.573 -15.627  23.031  0.00  0.00    -0.022 A 
ATOM     19  C   UNL d   1     -20.630 -18.643  20.182  0.00  0.00     0.148 A 
ATOM     20  C   UNL d   1     -20.587 -17.075  21.602  0.00  0.00     0.016 C 
ATOM     21  C   UNL d   1     -19.749 -13.925  21.072  0.00  0.00     0.021 C 
ATOM     22  C   UNL d   1     -20.594 -14.235  24.556  0.00  0.00    -0.005 A 
ATOM     23  C   UNL d   1     -20.024 -12.214  24.072  0.00  0.00     0.021 A 
ATOM     24  C   UNL d   1     -20.594 -13.479  25.333  0.00  0.00    -0.014 A 
ATOM     25  C   UNL d   1     -19.757 -16.714  18.238  0.00  0.00     0.020 C 
ATOM     26  C   UNL d   1     -20.307 -12.461  25.090  0.00  0.00     0.006 A 
ATOM     27  C   UNL d   1     -20.857 -15.177  24.770  0.00  0.00     0.011 C 
ATOM     28  C   UNL d   1     -20.856 -13.718  26.268  0.00  0.00     0.010 C 
ENDROOT
BRANCH   9  29
ATOM     29  C   UNL d   1     -19.913 -17.662  17.960  0.00  0.00     0.176 C 
BRANCH  29  30
ATOM     30  O   UNL d   1     -20.092 -17.014  17.220  0.00  0.00    -0.400 OA
ATOM     31  H   UNL d   1     -19.658 -16.602  17.057  0.00  0.00     0.209 HD
ENDBRANCH  29  30
ENDBRANCH   9  29
BRANCH  17  32
ATOM     32  O   UNL d   1     -20.356 -19.114  18.459  0.00  0.00    -0.392 OA
ATOM     33  H   UNL d   1     -19.886 -19.517  18.421  0.00  0.00     0.210 HD
ENDBRANCH  17  32
BRANCH  19  34
ATOM     34  O   UNL d   1     -20.898 -19.575  20.425  0.00  0.00    -0.393 OA
ATOM     35  H   UNL d   1     -20.501 -19.942  20.730  0.00  0.00     0.210 HD
ENDBRANCH  19  34
BRANCH  14  36
ATOM     36  C   UNL d   1     -19.768 -12.050  23.087  0.00  0.00     0.149 C 
ATOM     37  O   UNL d   1     -20.472 -11.356  22.934  0.00  0.00    -0.649 OA
BRANCH  36  38
ATOM     38  O   UNL d   1     -18.801 -11.806  23.015  0.00  0.00    -0.776 OA
ATOM     39  H   UNL d   1     -18.414 -12.166  22.693  0.00  0.00     0.167 HD
ENDBRANCH  36  38
ENDBRANCH  14  36
TORSDOF 6
ENDMDL
