MODEL 1
REMARK VINA RESULT:    -8.725      0.000      0.000
REMARK INTER + INTRA:          -6.934
REMARK INTER:                 -10.396
REMARK INTRA:                   3.463
REMARK UNBOUND:                 3.577
REMARK  6 active torsions:
REMARK  status: ('A' for Active; 'I' for Inactive)
REMARK    1  A    between atoms: O_2  and  C_7 
REMARK    2  A    between atoms: O_3  and  C_13 
REMARK    3  A    between atoms: O_4  and  C_18 
REMARK    4  A    between atoms: O_5  and  C_19 
REMARK    5  A    between atoms: O_6  and  C_21 
REMARK    6  A    between atoms: C_8  and  C_12 
ROOT
ATOM      1  O   UNL d   1       3.931 -11.036 -37.866  0.00  0.00    -0.338 OA
ATOM      2  C   UNL d   1       4.386 -12.673 -37.530  0.00  0.00     0.156 A 
ATOM      3  C   UNL d   1       4.400 -11.877 -38.135  0.00  0.00     0.191 A 
ATOM      4  C   UNL d   1       3.903 -12.628 -36.656  0.00  0.00     0.079 A 
ATOM      5  C   UNL d   1       3.434 -11.786 -36.386  0.00  0.00     0.011 A 
ATOM      6  C   UNL d   1       3.449 -10.990 -36.992  0.00  0.00     0.081 A 
ATOM      7  C   UNL d   1       2.935 -11.754 -35.473  0.00  0.00     0.077 A 
ATOM      8  C   UNL d   1       2.965 -10.107 -36.725  0.00  0.00     0.074 A 
ATOM      9  C   UNL d   1       2.445 -10.880 -35.186  0.00  0.00     0.073 A 
ATOM     10  C   UNL d   1       2.460 -10.052 -35.816  0.00  0.00     0.071 A 
ENDROOT
BRANCH   3  11
ATOM     11  C   UNL d   1       4.883 -11.923 -39.010  0.00  0.00    -0.024 A 
ATOM     12  C   UNL d   1       5.844 -11.653 -39.065  0.00  0.00     0.049 A 
ATOM     13  C   UNL d   1       6.327 -11.698 -39.939  0.00  0.00     0.099 A 
ATOM     14  C   UNL d   1       5.849 -12.014 -40.759  0.00  0.00     0.098 A 
ATOM     15  C   UNL d   1       4.887 -12.284 -40.704  0.00  0.00     0.040 A 
ATOM     16  C   UNL d   1       4.404 -12.238 -39.829  0.00  0.00     0.013 A 
BRANCH  13  17
ATOM     17  O   UNL d   1       7.288 -11.428 -39.994  0.00  0.00    -0.358 OA
ATOM     18  H   UNL d   1       7.733 -11.861 -39.990  0.00  0.00     0.217 HD
ENDBRANCH  13  17
BRANCH  14  19
ATOM     19  O   UNL d   1       6.331 -12.059 -41.633  0.00  0.00    -0.358 OA
ATOM     20  H   UNL d   1       6.886 -11.788 -41.696  0.00  0.00     0.217 HD
ENDBRANCH  14  19
ENDBRANCH   3  11
BRANCH   2  21
ATOM     21  O   UNL d   1       4.854 -13.515 -37.799  0.00  0.00    -0.392 OA
ATOM     22  H   UNL d   1       4.798 -14.025 -37.453  0.00  0.00     0.210 HD
ENDBRANCH   2  21
BRANCH   7  23
ATOM     23  O   UNL d   1       2.928 -12.556 -34.876  0.00  0.00    -0.360 OA
ATOM     24  H   UNL d   1       3.200 -13.081 -35.059  0.00  0.00     0.217 HD
ENDBRANCH   7  23
BRANCH  10  25
ATOM     25  O   UNL d   1       1.993  -9.209 -35.550  0.00  0.00    -0.361 OA
ATOM     26  H   UNL d   1       2.119  -8.943 -35.005  0.00  0.00     0.217 HD
ENDBRANCH  10  25
TORSDOF 6
ENDMDL
MODEL 2
REMARK VINA RESULT:    -8.101     53.452     54.188
REMARK INTER + INTRA:          -6.181
REMARK INTER:                  -9.642
REMARK INTRA:                   3.461
REMARK UNBOUND:                 3.577
REMARK  6 active torsions:
REMARK  status: ('A' for Active; 'I' for Inactive)
REMARK    1  A    between atoms: O_2  and  C_7 
REMARK    2  A    between atoms: O_3  and  C_13 
REMARK    3  A    between atoms: O_4  and  C_18 
REMARK    4  A    between atoms: O_5  and  C_19 
REMARK    5  A    between atoms: O_6  and  C_21 
REMARK    6  A    between atoms: C_8  and  C_12 
ROOT
ATOM      1  O   UNL d   1      -4.668 -27.392  13.291  0.00  0.00    -0.338 OA
ATOM      2  C   UNL d   1      -3.806 -28.718  12.585  0.00  0.00     0.156 A 
ATOM      3  C   UNL d   1      -3.810 -27.881  13.131  0.00  0.00     0.191 A 
ATOM      4  C   UNL d   1      -4.660 -29.067  12.197  0.00  0.00     0.079 A 
ATOM      5  C   UNL d   1      -5.518 -28.577  12.357  0.00  0.00     0.011 A 
ATOM      6  C   UNL d   1      -5.521 -27.740  12.903  0.00  0.00     0.081 A 
ATOM      7  C   UNL d   1      -6.399 -28.952  11.947  0.00  0.00     0.077 A 
ATOM      8  C   UNL d   1      -6.407 -27.219  13.078  0.00  0.00     0.074 A 
ATOM      9  C   UNL d   1      -7.296 -28.448  12.109  0.00  0.00     0.073 A 
ATOM     10  C   UNL d   1      -7.300 -27.576  12.678  0.00  0.00     0.071 A 
ENDROOT
BRANCH   3  11
ATOM     11  C   UNL d   1      -2.957 -27.533  13.519  0.00  0.00    -0.024 A 
ATOM     12  C   UNL d   1      -2.391 -26.899  12.992  0.00  0.00     0.049 A 
ATOM     13  C   UNL d   1      -1.537 -26.550  13.380  0.00  0.00     0.099 A 
ATOM     14  C   UNL d   1      -1.249 -26.836  14.294  0.00  0.00     0.098 A 
ATOM     15  C   UNL d   1      -1.815 -27.471  14.820  0.00  0.00     0.040 A 
ATOM     16  C   UNL d   1      -2.669 -27.819  14.433  0.00  0.00     0.013 A 
BRANCH  13  17
ATOM     17  O   UNL d   1      -0.971 -25.916  12.853  0.00  0.00    -0.358 OA
ATOM     18  H   UNL d   1      -0.438 -25.706  13.090  0.00  0.00     0.217 HD
ENDBRANCH  13  17
BRANCH  14  19
ATOM     19  O   UNL d   1      -0.396 -26.488  14.681  0.00  0.00    -0.358 OA
ATOM     20  H   UNL d   1       0.050 -26.883  14.854  0.00  0.00     0.217 HD
ENDBRANCH  14  19
ENDBRANCH   3  11
BRANCH   2  21
ATOM     21  O   UNL d   1      -2.949 -29.208  12.426  0.00  0.00    -0.392 OA
ATOM     22  H   UNL d   1      -2.942 -29.712  12.065  0.00  0.00     0.210 HD
ENDBRANCH   2  21
BRANCH   7  23
ATOM     23  O   UNL d   1      -6.383 -29.790  11.402  0.00  0.00    -0.360 OA
ATOM     24  H   UNL d   1      -6.683 -29.813  10.860  0.00  0.00     0.217 HD
ENDBRANCH   7  23
BRANCH  10  25
ATOM     25  O   UNL d   1      -8.155 -27.085  12.839  0.00  0.00    -0.361 OA
ATOM     26  H   UNL d   1      -8.144 -26.499  13.040  0.00  0.00     0.217 HD
ENDBRANCH  10  25
TORSDOF 6
ENDMDL
MODEL 3
REMARK VINA RESULT:    -8.079      1.253      5.055
REMARK INTER + INTRA:          -6.155
REMARK INTER:                  -9.633
REMARK INTRA:                   3.478
REMARK UNBOUND:                 3.577
REMARK  6 active torsions:
REMARK  status: ('A' for Active; 'I' for Inactive)
REMARK    1  A    between atoms: O_2  and  C_7 
REMARK    2  A    between atoms: O_3  and  C_13 
REMARK    3  A    between atoms: O_4  and  C_18 
REMARK    4  A    between atoms: O_5  and  C_19 
REMARK    5  A    between atoms: O_6  and  C_21 
REMARK    6  A    between atoms: C_8  and  C_12 
ROOT
ATOM      1  O   UNL d   1       3.894 -11.807 -39.493  0.00  0.00    -0.338 OA
ATOM      2  C   UNL d   1       5.480 -11.852 -38.798  0.00  0.00     0.156 A 
ATOM      3  C   UNL d   1       4.486 -11.849 -38.688  0.00  0.00     0.191 A 
ATOM      4  C   UNL d   1       5.882 -11.813 -39.713  0.00  0.00     0.079 A 
ATOM      5  C   UNL d   1       5.291 -11.771 -40.518  0.00  0.00     0.011 A 
ATOM      6  C   UNL d   1       4.297 -11.768 -40.408  0.00  0.00     0.081 A 
ATOM      7  C   UNL d   1       5.723 -11.731 -41.464  0.00  0.00     0.077 A 
ATOM      8  C   UNL d   1       3.667 -11.725 -41.237  0.00  0.00     0.074 A 
ATOM      9  C   UNL d   1       5.113 -11.687 -42.307  0.00  0.00     0.073 A 
ATOM     10  C   UNL d   1       4.079 -11.684 -42.193  0.00  0.00     0.071 A 
ENDROOT
BRANCH   3  11
ATOM     11  C   UNL d   1       4.084 -11.889 -37.774  0.00  0.00    -0.024 A 
ATOM     12  C   UNL d   1       3.972 -12.770 -37.314  0.00  0.00     0.049 A 
ATOM     13  C   UNL d   1       3.570 -12.809 -36.399  0.00  0.00     0.099 A 
ATOM     14  C   UNL d   1       3.279 -11.967 -35.944  0.00  0.00     0.098 A 
ATOM     15  C   UNL d   1       3.391 -11.086 -36.404  0.00  0.00     0.040 A 
ATOM     16  C   UNL d   1       3.793 -11.047 -37.319  0.00  0.00     0.013 A 
BRANCH  13  17
ATOM     17  O   UNL d   1       3.459 -13.690 -35.939  0.00  0.00    -0.358 OA
ATOM     18  H   UNL d   1       3.268 -14.185 -36.260  0.00  0.00     0.217 HD
ENDBRANCH  13  17
BRANCH  14  19
ATOM     19  O   UNL d   1       2.877 -12.006 -35.030  0.00  0.00    -0.358 OA
ATOM     20  H   UNL d   1       3.166 -11.735 -34.552  0.00  0.00     0.217 HD
ENDBRANCH  14  19
ENDBRANCH   3  11
BRANCH   2  21
ATOM     21  O   UNL d   1       6.072 -11.894 -37.993  0.00  0.00    -0.392 OA
ATOM     22  H   UNL d   1       6.163 -11.387 -37.648  0.00  0.00     0.210 HD
ENDBRANCH   2  21
BRANCH   7  23
ATOM     23  O   UNL d   1       6.719 -11.734 -41.562  0.00  0.00    -0.360 OA
ATOM     24  H   UNL d   1       7.066 -12.083 -41.185  0.00  0.00     0.217 HD
ENDBRANCH   7  23
BRANCH  10  25
ATOM     25  O   UNL d   1       3.484 -11.642 -42.995  0.00  0.00    -0.361 OA
ATOM     26  H   UNL d   1       3.248 -12.162 -43.235  0.00  0.00     0.217 HD
ENDBRANCH  10  25
TORSDOF 6
ENDMDL
MODEL 4
REMARK VINA RESULT:    -7.963      1.732      2.076
REMARK INTER + INTRA:          -6.015
REMARK INTER:                  -9.535
REMARK INTRA:                   3.519
REMARK UNBOUND:                 3.577
REMARK  6 active torsions:
REMARK  status: ('A' for Active; 'I' for Inactive)
REMARK    1  A    between atoms: O_2  and  C_7 
REMARK    2  A    between atoms: O_3  and  C_13 
REMARK    3  A    between atoms: O_4  and  C_18 
REMARK    4  A    between atoms: O_5  and  C_19 
REMARK    5  A    between atoms: O_6  and  C_21 
REMARK    6  A    between atoms: C_8  and  C_12 
ROOT
ATOM      1  O   UNL d   1       2.839 -10.424 -38.417  0.00  0.00    -0.338 OA
ATOM      2  C   UNL d   1       2.647 -12.143 -38.340  0.00  0.00     0.156 A 
ATOM      3  C   UNL d   1       2.789 -11.311 -38.876  0.00  0.00     0.191 A 
ATOM      4  C   UNL d   1       2.555 -12.089 -37.346  0.00  0.00     0.079 A 
ATOM      5  C   UNL d   1       2.606 -11.202 -36.887  0.00  0.00     0.011 A 
ATOM      6  C   UNL d   1       2.748 -10.369 -37.423  0.00  0.00     0.081 A 
ATOM      7  C   UNL d   1       2.509 -11.160 -35.851  0.00  0.00     0.077 A 
ATOM      8  C   UNL d   1       2.803  -9.438 -36.959  0.00  0.00     0.074 A 
ATOM      9  C   UNL d   1       2.561 -10.240 -35.366  0.00  0.00     0.073 A 
ATOM     10  C   UNL d   1       2.709  -9.373 -35.924  0.00  0.00     0.071 A 
ENDROOT
BRANCH   3  11
ATOM     11  C   UNL d   1       2.880 -11.365 -39.870  0.00  0.00    -0.024 A 
ATOM     12  C   UNL d   1       3.747 -11.654 -40.277  0.00  0.00     0.049 A 
ATOM     13  C   UNL d   1       3.838 -11.709 -41.272  0.00  0.00     0.099 A 
ATOM     14  C   UNL d   1       3.063 -11.474 -41.859  0.00  0.00     0.098 A 
ATOM     15  C   UNL d   1       2.197 -11.186 -41.451  0.00  0.00     0.040 A 
ATOM     16  C   UNL d   1       2.105 -11.131 -40.457  0.00  0.00     0.013 A 
BRANCH  13  17
ATOM     17  O   UNL d   1       4.704 -11.997 -41.679  0.00  0.00    -0.358 OA
ATOM     18  H   UNL d   1       4.741 -12.099 -42.290  0.00  0.00     0.217 HD
ENDBRANCH  13  17
BRANCH  14  19
ATOM     19  O   UNL d   1       3.154 -11.529 -42.853  0.00  0.00    -0.358 OA
ATOM     20  H   UNL d   1       3.010 -11.039 -43.205  0.00  0.00     0.217 HD
ENDBRANCH  14  19
ENDBRANCH   3  11
BRANCH   2  21
ATOM     21  O   UNL d   1       2.596 -13.030 -38.799  0.00  0.00    -0.392 OA
ATOM     22  H   UNL d   1       3.094 -13.257 -39.091  0.00  0.00     0.210 HD
ENDBRANCH   2  21
BRANCH   7  23
ATOM     23  O   UNL d   1       2.367 -11.999 -35.326  0.00  0.00    -0.360 OA
ATOM     24  H   UNL d   1       2.240 -12.531 -35.619  0.00  0.00     0.217 HD
ENDBRANCH   7  23
BRANCH  10  25
ATOM     25  O   UNL d   1       2.760  -8.485 -35.468  0.00  0.00    -0.361 OA
ATOM     26  H   UNL d   1       2.267  -8.110 -35.462  0.00  0.00     0.217 HD
ENDBRANCH  10  25
TORSDOF 6
ENDMDL
MODEL 5
REMARK VINA RESULT:    -7.840      1.160      5.052
REMARK INTER + INTRA:          -5.867
REMARK INTER:                  -9.332
REMARK INTRA:                   3.464
REMARK UNBOUND:                 3.577
REMARK  6 active torsions:
REMARK  status: ('A' for Active; 'I' for Inactive)
REMARK    1  A    between atoms: O_2  and  C_7 
REMARK    2  A    between atoms: O_3  and  C_13 
REMARK    3  A    between atoms: O_4  and  C_18 
REMARK    4  A    between atoms: O_5  and  C_19 
REMARK    5  A    between atoms: O_6  and  C_21 
REMARK    6  A    between atoms: C_8  and  C_12 
ROOT
ATOM      1  O   UNL d   1       4.745 -11.924 -37.983  0.00  0.00    -0.338 OA
ATOM      2  C   UNL d   1       3.117 -12.208 -38.501  0.00  0.00     0.156 A 
ATOM      3  C   UNL d   1       3.784 -12.093 -37.765  0.00  0.00     0.191 A 
ATOM      4  C   UNL d   1       3.412 -12.154 -39.456  0.00  0.00     0.079 A 
ATOM      5  C   UNL d   1       4.373 -11.985 -39.673  0.00  0.00     0.011 A 
ATOM      6  C   UNL d   1       5.040 -11.870 -38.937  0.00  0.00     0.081 A 
ATOM      7  C   UNL d   1       4.665 -11.931 -40.671  0.00  0.00     0.077 A 
ATOM      8  C   UNL d   1       6.045 -11.693 -39.148  0.00  0.00     0.074 A 
ATOM      9  C   UNL d   1       5.665 -11.755 -40.906  0.00  0.00     0.073 A 
ATOM     10  C   UNL d   1       6.359 -11.635 -40.139  0.00  0.00     0.071 A 
ENDROOT
BRANCH   3  11
ATOM     11  C   UNL d   1       3.490 -12.147 -36.811  0.00  0.00    -0.024 A 
ATOM     12  C   UNL d   1       3.514 -13.023 -36.329  0.00  0.00     0.049 A 
ATOM     13  C   UNL d   1       3.220 -13.077 -35.375  0.00  0.00     0.099 A 
ATOM     14  C   UNL d   1       2.901 -12.255 -34.903  0.00  0.00     0.098 A 
ATOM     15  C   UNL d   1       2.876 -11.379 -35.385  0.00  0.00     0.040 A 
ATOM     16  C   UNL d   1       3.171 -11.325 -36.339  0.00  0.00     0.013 A 
BRANCH  13  17
ATOM     17  O   UNL d   1       3.245 -13.953 -34.893  0.00  0.00    -0.358 OA
ATOM     18  H   UNL d   1       3.100 -14.476 -35.193  0.00  0.00     0.217 HD
ENDBRANCH  13  17
BRANCH  14  19
ATOM     19  O   UNL d   1       2.606 -12.309 -33.949  0.00  0.00    -0.358 OA
ATOM     20  H   UNL d   1       2.995 -12.144 -33.494  0.00  0.00     0.217 HD
ENDBRANCH  14  19
ENDBRANCH   3  11
BRANCH   2  21
ATOM     21  O   UNL d   1       2.156 -12.377 -38.284  0.00  0.00    -0.392 OA
ATOM     22  H   UNL d   1       1.710 -12.084 -38.600  0.00  0.00     0.210 HD
ENDBRANCH   2  21
BRANCH   7  23
ATOM     23  O   UNL d   1       3.990 -12.047 -41.400  0.00  0.00    -0.360 OA
ATOM     24  H   UNL d   1       4.073 -11.769 -41.947  0.00  0.00     0.217 HD
ENDBRANCH   7  23
BRANCH  10  25
ATOM     25  O   UNL d   1       7.321 -11.466 -40.354  0.00  0.00    -0.361 OA
ATOM     26  H   UNL d   1       7.720 -11.327 -39.901  0.00  0.00     0.217 HD
ENDBRANCH  10  25
TORSDOF 6
ENDMDL
