MODEL 1
REMARK VINA RESULT:   -12.155      0.000      0.000
REMARK INTER + INTRA:          -7.825
REMARK INTER:                 -16.309
REMARK INTRA:                   8.484
REMARK UNBOUND:                 8.594
REMARK  9 active torsions:
REMARK  status: ('A' for Active; 'I' for Inactive)
REMARK    1  A    between atoms: O_3  and  C_17 
REMARK    2  A    between atoms: O_4  and  C_18 
REMARK    3  A    between atoms: O_5  and  C_19 
REMARK    4  A    between atoms: O_7  and  C_32 
REMARK    5  A    between atoms: O_9  and  C_36 
REMARK    6  A    between atoms: O_10  and  C_40 
REMARK    7  A    between atoms: C_11  and  C_13 
REMARK    8  A    between atoms: C_15  and  C_20 
REMARK    9  A    between atoms: C_22  and  C_29 
ROOT
ATOM      1  O   UNL d   1     -16.573   9.640  19.652  0.00  0.00    -0.308 OA
ATOM      2  O   UNL d   1     -14.267   9.404  17.641  0.00  0.00    -0.287 OA
ATOM      3  C   UNL d   1     -15.383   9.676  20.949  0.00  0.00     0.045 A 
ATOM      4  C   UNL d   1     -15.581   9.618  19.970  0.00  0.00     0.107 A 
ATOM      5  C   UNL d   1     -14.832   9.542  19.312  0.00  0.00     0.082 A 
ATOM      6  C   UNL d   1     -14.436   9.656  21.269  0.00  0.00     0.082 A 
ATOM      7  C   UNL d   1     -13.885   9.522  19.632  0.00  0.00     0.085 A 
ATOM      8  C   UNL d   1     -13.687   9.579  20.611  0.00  0.00     0.075 A 
ATOM      9  C   UNL d   1     -16.787   9.581  18.635  0.00  0.00     0.090 A 
ATOM     10  C   UNL d   1     -15.024   9.481  18.290  0.00  0.00     0.190 A 
ATOM     11  C   UNL d   1     -16.007   9.501  17.949  0.00  0.00     0.094 A 
ENDROOT
BRANCH   3  12
ATOM     12  C   UNL d   1     -16.132   9.753  21.607  0.00  0.00     0.014 A 
ATOM     13  C   UNL d   1     -16.563   8.928  21.972  0.00  0.00     0.029 A 
ATOM     14  C   UNL d   1     -17.312   9.005  22.631  0.00  0.00    -0.001 A 
ATOM     15  C   UNL d   1     -17.630   9.906  22.924  0.00  0.00     0.017 A 
ATOM     16  C   UNL d   1     -17.198  10.731  22.558  0.00  0.00     0.038 A 
ATOM     17  C   UNL d   1     -16.449  10.654  21.900  0.00  0.00     0.076 A 
BRANCH  14  18
ATOM     18  C   UNL d   1     -17.743   8.180  22.996  0.00  0.00     0.090 A 
ATOM     19  O   UNL d   1     -18.472   7.727  22.482  0.00  0.00    -0.309 OA
ATOM     20  C   UNL d   1     -18.903   6.902  22.847  0.00  0.00     0.095 A 
ATOM     21  C   UNL d   1     -18.606   6.530  23.726  0.00  0.00     0.081 A 
ATOM     22  C   UNL d   1     -19.661   6.441  22.300  0.00  0.00     0.075 A 
ATOM     23  C   UNL d   1     -17.878   6.983  24.240  0.00  0.00     0.190 A 
ATOM     24  C   UNL d   1     -19.046   5.671  24.119  0.00  0.00     0.085 A 
ATOM     25  O   UNL d   1     -17.581   6.610  25.120  0.00  0.00    -0.287 OA
ATOM     26  C   UNL d   1     -17.446   7.808  23.875  0.00  0.00     0.094 A 
ATOM     27  C   UNL d   1     -19.806   5.194  23.590  0.00  0.00     0.074 A 
ATOM     28  C   UNL d   1     -20.115   5.581  22.674  0.00  0.00     0.071 A 
BRANCH  24  29
ATOM     29  O   UNL d   1     -18.741   5.308  25.000  0.00  0.00    -0.360 OA
ATOM     30  H   UNL d   1     -18.135   5.271  25.127  0.00  0.00     0.217 HD
ENDBRANCH  24  29
BRANCH  28  31
ATOM     31  O   UNL d   1     -20.843   5.131  22.157  0.00  0.00    -0.361 OA
ATOM     32  H   UNL d   1     -21.390   5.018  22.426  0.00  0.00     0.217 HD
ENDBRANCH  28  31
ENDBRANCH  14  18
BRANCH  17  33
ATOM     33  O   UNL d   1     -16.018  11.479  21.535  0.00  0.00    -0.360 OA
ATOM     34  H   UNL d   1     -15.686  11.847  21.908  0.00  0.00     0.217 HD
ENDBRANCH  17  33
ENDBRANCH   3  12
BRANCH   6  35
ATOM     35  O   UNL d   1     -14.238   9.714  22.248  0.00  0.00    -0.360 OA
ATOM     36  H   UNL d   1     -14.173   9.195  22.582  0.00  0.00     0.217 HD
ENDBRANCH   6  35
BRANCH   9  37
ATOM     37  C   UNL d   1     -17.736   9.601  18.318  0.00  0.00    -0.002 A 
ATOM     38  C   UNL d   1     -18.292  10.420  18.458  0.00  0.00     0.017 A 
ATOM     39  C   UNL d   1     -19.240  10.441  18.142  0.00  0.00     0.037 A 
ATOM     40  C   UNL d   1     -19.633   9.642  17.687  0.00  0.00     0.065 A 
ATOM     41  C   UNL d   1     -19.077   8.822  17.548  0.00  0.00     0.037 A 
ATOM     42  C   UNL d   1     -18.128   8.802  17.864  0.00  0.00     0.017 A 
BRANCH  40  43
ATOM     43  O   UNL d   1     -20.582   9.662  17.371  0.00  0.00    -0.361 OA
ATOM     44  H   UNL d   1     -21.043   9.738  17.779  0.00  0.00     0.217 HD
ENDBRANCH  40  43
ENDBRANCH   9  37
BRANCH   7  45
ATOM     45  O   UNL d   1     -13.136   9.445  18.974  0.00  0.00    -0.360 OA
ATOM     46  H   UNL d   1     -12.936   9.948  18.672  0.00  0.00     0.217 HD
ENDBRANCH   7  45
TORSDOF 9
ENDMDL
MODEL 2
REMARK VINA RESULT:   -12.085      2.609      4.826
REMARK INTER + INTRA:          -7.729
REMARK INTER:                 -16.304
REMARK INTRA:                   8.575
REMARK UNBOUND:                 8.594
REMARK  9 active torsions:
REMARK  status: ('A' for Active; 'I' for Inactive)
REMARK    1  A    between atoms: O_3  and  C_17 
REMARK    2  A    between atoms: O_4  and  C_18 
REMARK    3  A    between atoms: O_5  and  C_19 
REMARK    4  A    between atoms: O_7  and  C_32 
REMARK    5  A    between atoms: O_9  and  C_36 
REMARK    6  A    between atoms: O_10  and  C_40 
REMARK    7  A    between atoms: C_11  and  C_13 
REMARK    8  A    between atoms: C_15  and  C_20 
REMARK    9  A    between atoms: C_22  and  C_29 
ROOT
ATOM      1  O   UNL d   1     -14.555  11.471  17.675  0.00  0.00    -0.308 OA
ATOM      2  O   UNL d   1     -15.411  11.597  14.730  0.00  0.00    -0.287 OA
ATOM      3  C   UNL d   1     -14.875   9.741  17.650  0.00  0.00     0.045 A 
ATOM      4  C   UNL d   1     -14.862  10.615  17.166  0.00  0.00     0.107 A 
ATOM      5  C   UNL d   1     -15.140  10.660  16.206  0.00  0.00     0.082 A 
ATOM      6  C   UNL d   1     -15.167   8.910  17.175  0.00  0.00     0.082 A 
ATOM      7  C   UNL d   1     -15.432   9.830  15.731  0.00  0.00     0.085 A 
ATOM      8  C   UNL d   1     -15.445   8.955  16.215  0.00  0.00     0.075 A 
ATOM      9  C   UNL d   1     -14.538  12.386  17.177  0.00  0.00     0.090 A 
ATOM     10  C   UNL d   1     -15.131  11.564  15.689  0.00  0.00     0.190 A 
ATOM     11  C   UNL d   1     -14.828  12.433  16.177  0.00  0.00     0.094 A 
ENDROOT
BRANCH   3  12
ATOM     12  C   UNL d   1     -14.597   9.696  18.610  0.00  0.00     0.014 A 
ATOM     13  C   UNL d   1     -15.280   9.800  19.333  0.00  0.00     0.029 A 
ATOM     14  C   UNL d   1     -15.001   9.755  20.293  0.00  0.00    -0.001 A 
ATOM     15  C   UNL d   1     -14.041   9.606  20.529  0.00  0.00     0.017 A 
ATOM     16  C   UNL d   1     -13.359   9.503  19.805  0.00  0.00     0.038 A 
ATOM     17  C   UNL d   1     -13.637   9.547  18.846  0.00  0.00     0.076 A 
BRANCH  14  18
ATOM     18  C   UNL d   1     -15.684   9.859  21.017  0.00  0.00     0.090 A 
ATOM     19  O   UNL d   1     -15.884   9.093  21.628  0.00  0.00    -0.309 OA
ATOM     20  C   UNL d   1     -16.566   9.197  22.352  0.00  0.00     0.095 A 
ATOM     21  C   UNL d   1     -17.048  10.066  22.464  0.00  0.00     0.081 A 
ATOM     22  C   UNL d   1     -16.764   8.391  22.982  0.00  0.00     0.075 A 
ATOM     23  C   UNL d   1     -16.848  10.831  21.852  0.00  0.00     0.190 A 
ATOM     24  C   UNL d   1     -17.762  10.189  23.213  0.00  0.00     0.085 A 
ATOM     25  O   UNL d   1     -17.330  11.700  21.964  0.00  0.00    -0.287 OA
ATOM     26  C   UNL d   1     -16.166  10.728  21.128  0.00  0.00     0.094 A 
ATOM     27  C   UNL d   1     -17.976   9.396  23.854  0.00  0.00     0.074 A 
ATOM     28  C   UNL d   1     -17.474   8.491  23.738  0.00  0.00     0.071 A 
BRANCH  24  29
ATOM     29  O   UNL d   1     -18.237  11.063  23.316  0.00  0.00    -0.360 OA
ATOM     30  H   UNL d   1     -18.578  11.173  23.823  0.00  0.00     0.217 HD
ENDBRANCH  24  29
BRANCH  28  31
ATOM     31  O   UNL d   1     -17.671   7.724  24.348  0.00  0.00    -0.361 OA
ATOM     32  H   UNL d   1     -17.288   7.237  24.368  0.00  0.00     0.217 HD
ENDBRANCH  28  31
ENDBRANCH  14  18
BRANCH  17  33
ATOM     33  O   UNL d   1     -12.955   9.444  18.122  0.00  0.00    -0.360 OA
ATOM     34  H   UNL d   1     -13.000   9.779  17.603  0.00  0.00     0.217 HD
ENDBRANCH  17  33
ENDBRANCH   3  12
BRANCH   6  35
ATOM     35  O   UNL d   1     -15.181   8.036  17.659  0.00  0.00    -0.360 OA
ATOM     36  H   UNL d   1     -14.764   7.598  17.520  0.00  0.00     0.217 HD
ENDBRANCH   6  35
BRANCH   9  37
ATOM     37  C   UNL d   1     -14.246  13.214  17.656  0.00  0.00    -0.002 A 
ATOM     38  C   UNL d   1     -14.928  13.862  17.995  0.00  0.00     0.017 A 
ATOM     39  C   UNL d   1     -14.636  14.689  18.474  0.00  0.00     0.037 A 
ATOM     40  C   UNL d   1     -13.663  14.869  18.613  0.00  0.00     0.065 A 
ATOM     41  C   UNL d   1     -12.980  14.222  18.274  0.00  0.00     0.037 A 
ATOM     42  C   UNL d   1     -13.273  13.394  17.795  0.00  0.00     0.017 A 
BRANCH  40  43
ATOM     43  O   UNL d   1     -13.370  15.697  19.092  0.00  0.00    -0.361 OA
ATOM     44  H   UNL d   1     -13.733  16.201  19.092  0.00  0.00     0.217 HD
ENDBRANCH  40  43
ENDBRANCH   9  37
BRANCH   7  45
ATOM     45  O   UNL d   1     -15.710   9.875  14.772  0.00  0.00    -0.360 OA
ATOM     46  H   UNL d   1     -15.288   9.802  14.323  0.00  0.00     0.217 HD
ENDBRANCH   7  45
TORSDOF 9
ENDMDL
MODEL 3
REMARK VINA RESULT:   -11.919      3.662      7.660
REMARK INTER + INTRA:          -7.506
REMARK INTER:                 -15.997
REMARK INTRA:                   8.492
REMARK UNBOUND:                 8.594
REMARK  9 active torsions:
REMARK  status: ('A' for Active; 'I' for Inactive)
REMARK    1  A    between atoms: O_3  and  C_17 
REMARK    2  A    between atoms: O_4  and  C_18 
REMARK    3  A    between atoms: O_5  and  C_19 
REMARK    4  A    between atoms: O_7  and  C_32 
REMARK    5  A    between atoms: O_9  and  C_36 
REMARK    6  A    between atoms: O_10  and  C_40 
REMARK    7  A    between atoms: C_11  and  C_13 
REMARK    8  A    between atoms: C_15  and  C_20 
REMARK    9  A    between atoms: C_22  and  C_29 
ROOT
ATOM      1  O   UNL d   1     -15.575  11.112  19.110  0.00  0.00    -0.308 OA
ATOM      2  O   UNL d   1     -14.855   9.208  21.406  0.00  0.00    -0.287 OA
ATOM      3  C   UNL d   1     -14.290  12.186  19.653  0.00  0.00     0.045 A 
ATOM      4  C   UNL d   1     -14.803  11.335  19.772  0.00  0.00     0.107 A 
ATOM      5  C   UNL d   1     -14.571  10.712  20.519  0.00  0.00     0.082 A 
ATOM      6  C   UNL d   1     -13.546  12.413  20.281  0.00  0.00     0.082 A 
ATOM      7  C   UNL d   1     -13.826  10.940  21.147  0.00  0.00     0.085 A 
ATOM      8  C   UNL d   1     -13.314  11.790  21.028  0.00  0.00     0.075 A 
ATOM      9  C   UNL d   1     -16.114  10.228  19.228  0.00  0.00     0.090 A 
ATOM     10  C   UNL d   1     -15.096   9.823  20.656  0.00  0.00     0.190 A 
ATOM     11  C   UNL d   1     -15.872   9.579  20.006  0.00  0.00     0.094 A 
ENDROOT
BRANCH   3  12
ATOM     12  C   UNL d   1     -14.522  12.809  18.906  0.00  0.00     0.014 A 
ATOM     13  C   UNL d   1     -14.116  12.678  18.002  0.00  0.00     0.029 A 
ATOM     14  C   UNL d   1     -14.348  13.301  17.255  0.00  0.00    -0.001 A 
ATOM     15  C   UNL d   1     -14.986  14.055  17.412  0.00  0.00     0.017 A 
ATOM     16  C   UNL d   1     -15.392  14.186  18.317  0.00  0.00     0.038 A 
ATOM     17  C   UNL d   1     -15.160  13.563  19.064  0.00  0.00     0.076 A 
BRANCH  14  18
ATOM     18  C   UNL d   1     -13.943  13.170  16.350  0.00  0.00     0.090 A 
ATOM     19  O   UNL d   1     -14.379  12.559  15.690  0.00  0.00    -0.309 OA
ATOM     20  C   UNL d   1     -13.973  12.428  14.786  0.00  0.00     0.095 A 
ATOM     21  C   UNL d   1     -13.131  12.909  14.541  0.00  0.00     0.081 A 
ATOM     22  C   UNL d   1     -14.439  11.788  14.108  0.00  0.00     0.075 A 
ATOM     23  C   UNL d   1     -12.695  13.520  15.201  0.00  0.00     0.190 A 
ATOM     24  C   UNL d   1     -12.697  12.782  13.603  0.00  0.00     0.085 A 
ATOM     25  O   UNL d   1     -11.852  14.001  14.957  0.00  0.00    -0.287 OA
ATOM     26  C   UNL d   1     -13.100  13.651  16.106  0.00  0.00     0.094 A 
ATOM     27  C   UNL d   1     -13.146  12.147  12.910  0.00  0.00     0.074 A 
ATOM     28  C   UNL d   1     -14.023  11.646  13.164  0.00  0.00     0.071 A 
BRANCH  24  29
ATOM     29  O   UNL d   1     -11.854  13.268  13.369  0.00  0.00    -0.360 OA
ATOM     30  H   UNL d   1     -11.882  13.841  13.134  0.00  0.00     0.217 HD
ENDBRANCH  24  29
BRANCH  28  31
ATOM     31  O   UNL d   1     -14.462  11.034  12.507  0.00  0.00    -0.361 OA
ATOM     32  H   UNL d   1     -14.960  11.225  12.190  0.00  0.00     0.217 HD
ENDBRANCH  28  31
ENDBRANCH  14  18
BRANCH  17  33
ATOM     33  O   UNL d   1     -15.566  13.694  19.968  0.00  0.00    -0.360 OA
ATOM     34  H   UNL d   1     -15.854  13.222  20.250  0.00  0.00     0.217 HD
ENDBRANCH  17  33
ENDBRANCH   3  12
BRANCH   6  35
ATOM     35  O   UNL d   1     -13.033  13.263  20.162  0.00  0.00    -0.360 OA
ATOM     36  H   UNL d   1     -12.823  13.571  20.658  0.00  0.00     0.217 HD
ENDBRANCH   6  35
BRANCH   9  37
ATOM     37  C   UNL d   1     -16.858  10.005  18.598  0.00  0.00    -0.002 A 
ATOM     38  C   UNL d   1     -16.654   9.576  17.717  0.00  0.00     0.017 A 
ATOM     39  C   UNL d   1     -17.397   9.353  17.087  0.00  0.00     0.037 A 
ATOM     40  C   UNL d   1     -18.343   9.557  17.337  0.00  0.00     0.065 A 
ATOM     41  C   UNL d   1     -18.547   9.986  18.217  0.00  0.00     0.037 A 
ATOM     42  C   UNL d   1     -17.803  10.209  18.848  0.00  0.00     0.017 A 
BRANCH  40  43
ATOM     43  O   UNL d   1     -19.087   9.334  16.707  0.00  0.00    -0.361 OA
ATOM     44  H   UNL d   1     -19.447   9.785  16.479  0.00  0.00     0.217 HD
ENDBRANCH  40  43
ENDBRANCH   9  37
BRANCH   7  45
ATOM     45  O   UNL d   1     -13.594  10.316  21.894  0.00  0.00    -0.360 OA
ATOM     46  H   UNL d   1     -13.029  10.333  22.147  0.00  0.00     0.217 HD
ENDBRANCH   7  45
TORSDOF 9
ENDMDL
MODEL 4
REMARK VINA RESULT:   -11.789      3.804      8.254
REMARK INTER + INTRA:          -7.330
REMARK INTER:                 -15.772
REMARK INTRA:                   8.443
REMARK UNBOUND:                 8.594
REMARK  9 active torsions:
REMARK  status: ('A' for Active; 'I' for Inactive)
REMARK    1  A    between atoms: O_3  and  C_17 
REMARK    2  A    between atoms: O_4  and  C_18 
REMARK    3  A    between atoms: O_5  and  C_19 
REMARK    4  A    between atoms: O_7  and  C_32 
REMARK    5  A    between atoms: O_9  and  C_36 
REMARK    6  A    between atoms: O_10  and  C_40 
REMARK    7  A    between atoms: C_11  and  C_13 
REMARK    8  A    between atoms: C_15  and  C_20 
REMARK    9  A    between atoms: C_22  and  C_29 
ROOT
ATOM      1  O   UNL d   1     -14.927  10.664  18.128  0.00  0.00    -0.308 OA
ATOM      2  O   UNL d   1     -15.971   8.174  16.669  0.00  0.00    -0.287 OA
ATOM      3  C   UNL d   1     -14.800  11.473  16.570  0.00  0.00     0.045 A 
ATOM      4  C   UNL d   1     -15.039  10.655  17.093  0.00  0.00     0.107 A 
ATOM      5  C   UNL d   1     -15.379   9.841  16.620  0.00  0.00     0.082 A 
ATOM      6  C   UNL d   1     -14.902  11.478  15.575  0.00  0.00     0.082 A 
ATOM      7  C   UNL d   1     -15.481   9.847  15.626  0.00  0.00     0.085 A 
ATOM      8  C   UNL d   1     -15.243  10.665  15.103  0.00  0.00     0.075 A 
ATOM      9  C   UNL d   1     -15.173   9.815  18.679  0.00  0.00     0.090 A 
ATOM     10  C   UNL d   1     -15.631   8.982  17.152  0.00  0.00     0.190 A 
ATOM     11  C   UNL d   1     -15.528   8.968  18.188  0.00  0.00     0.094 A 
ENDROOT
BRANCH   3  12
ATOM     12  C   UNL d   1     -14.460  12.286  17.042  0.00  0.00     0.014 A 
ATOM     13  C   UNL d   1     -13.481  12.389  17.218  0.00  0.00     0.029 A 
ATOM     14  C   UNL d   1     -13.141  13.202  17.691  0.00  0.00    -0.001 A 
ATOM     15  C   UNL d   1     -13.779  13.912  17.986  0.00  0.00     0.017 A 
ATOM     16  C   UNL d   1     -14.758  13.810  17.810  0.00  0.00     0.038 A 
ATOM     17  C   UNL d   1     -15.098  12.997  17.338  0.00  0.00     0.076 A 
BRANCH  14  18
ATOM     18  C   UNL d   1     -12.162  13.305  17.867  0.00  0.00     0.090 A 
ATOM     19  O   UNL d   1     -11.772  12.980  18.729  0.00  0.00    -0.309 OA
ATOM     20  C   UNL d   1     -10.793  13.083  18.905  0.00  0.00     0.095 A 
ATOM     21  C   UNL d   1     -10.204  13.510  18.220  0.00  0.00     0.081 A 
ATOM     22  C   UNL d   1     -10.402  12.740  19.808  0.00  0.00     0.075 A 
ATOM     23  C   UNL d   1     -10.593  13.835  17.358  0.00  0.00     0.190 A 
ATOM     24  C   UNL d   1      -9.182  13.624  18.389  0.00  0.00     0.085 A 
ATOM     25  O   UNL d   1     -10.004  14.262  16.672  0.00  0.00    -0.287 OA
ATOM     26  C   UNL d   1     -11.572  13.732  17.181  0.00  0.00     0.094 A 
ATOM     27  C   UNL d   1      -8.769  13.289  19.285  0.00  0.00     0.074 A 
ATOM     28  C   UNL d   1      -9.383  12.844  19.999  0.00  0.00     0.071 A 
BRANCH  24  29
ATOM     29  O   UNL d   1      -8.602  14.053  17.697  0.00  0.00    -0.360 OA
ATOM     30  H   UNL d   1      -8.639  13.870  17.105  0.00  0.00     0.217 HD
ENDBRANCH  24  29
BRANCH  28  31
ATOM     31  O   UNL d   1      -8.997  12.518  20.862  0.00  0.00    -0.361 OA
ATOM     32  H   UNL d   1      -8.714  11.967  20.887  0.00  0.00     0.217 HD
ENDBRANCH  28  31
ENDBRANCH  14  18
BRANCH  17  33
ATOM     33  O   UNL d   1     -16.077  12.894  17.162  0.00  0.00    -0.360 OA
ATOM     34  H   UNL d   1     -16.403  13.369  16.932  0.00  0.00     0.217 HD
ENDBRANCH  17  33
ENDBRANCH   3  12
BRANCH   6  35
ATOM     35  O   UNL d   1     -14.664  12.297  15.053  0.00  0.00    -0.360 OA
ATOM     36  H   UNL d   1     -14.116  12.332  14.764  0.00  0.00     0.217 HD
ENDBRANCH   6  35
BRANCH   9  37
ATOM     37  C   UNL d   1     -15.070   9.814  19.674  0.00  0.00    -0.002 A 
ATOM     38  C   UNL d   1     -15.843  10.066  20.257  0.00  0.00     0.017 A 
ATOM     39  C   UNL d   1     -15.740  10.065  21.252  0.00  0.00     0.037 A 
ATOM     40  C   UNL d   1     -14.865   9.812  21.663  0.00  0.00     0.065 A 
ATOM     41  C   UNL d   1     -14.092   9.561  21.081  0.00  0.00     0.037 A 
ATOM     42  C   UNL d   1     -14.195   9.562  20.086  0.00  0.00     0.017 A 
BRANCH  40  43
ATOM     43  O   UNL d   1     -14.761   9.811  22.658  0.00  0.00    -0.361 OA
ATOM     44  H   UNL d   1     -14.283   9.516  22.920  0.00  0.00     0.217 HD
ENDBRANCH  40  43
ENDBRANCH   9  37
BRANCH   7  45
ATOM     45  O   UNL d   1     -15.821   9.034  15.154  0.00  0.00    -0.360 OA
ATOM     46  H   UNL d   1     -15.961   8.523  15.477  0.00  0.00     0.217 HD
ENDBRANCH   7  45
TORSDOF 9
ENDMDL
MODEL 5
REMARK VINA RESULT:   -11.675      1.662      3.089
REMARK INTER + INTRA:          -7.177
REMARK INTER:                 -16.001
REMARK INTRA:                   8.824
REMARK UNBOUND:                 8.594
REMARK  9 active torsions:
REMARK  status: ('A' for Active; 'I' for Inactive)
REMARK    1  A    between atoms: O_3  and  C_17 
REMARK    2  A    between atoms: O_4  and  C_18 
REMARK    3  A    between atoms: O_5  and  C_19 
REMARK    4  A    between atoms: O_7  and  C_32 
REMARK    5  A    between atoms: O_9  and  C_36 
REMARK    6  A    between atoms: O_10  and  C_40 
REMARK    7  A    between atoms: C_11  and  C_13 
REMARK    8  A    between atoms: C_15  and  C_20 
REMARK    9  A    between atoms: C_22  and  C_29 
ROOT
ATOM      1  O   UNL d   1     -16.650  10.332  20.061  0.00  0.00    -0.308 OA
ATOM      2  O   UNL d   1     -17.208  13.141  18.957  0.00  0.00    -0.287 OA
ATOM      3  C   UNL d   1     -17.144  10.905  21.650  0.00  0.00     0.045 A 
ATOM      4  C   UNL d   1     -16.994  11.096  20.680  0.00  0.00     0.107 A 
ATOM      5  C   UNL d   1     -17.175  12.010  20.317  0.00  0.00     0.082 A 
ATOM      6  C   UNL d   1     -17.473  11.628  22.257  0.00  0.00     0.082 A 
ATOM      7  C   UNL d   1     -17.504  12.733  20.924  0.00  0.00     0.085 A 
ATOM      8  C   UNL d   1     -17.654  12.542  21.894  0.00  0.00     0.075 A 
ATOM      9  C   UNL d   1     -16.493  10.524  19.049  0.00  0.00     0.090 A 
ATOM     10  C   UNL d   1     -17.024  12.223  19.309  0.00  0.00     0.190 A 
ATOM     11  C   UNL d   1     -16.681  11.476  18.670  0.00  0.00     0.094 A 
ENDROOT
BRANCH   3  12
ATOM     12  C   UNL d   1     -16.963   9.991  22.014  0.00  0.00     0.014 A 
ATOM     13  C   UNL d   1     -17.700   9.317  22.061  0.00  0.00     0.029 A 
ATOM     14  C   UNL d   1     -17.520   8.403  22.424  0.00  0.00    -0.001 A 
ATOM     15  C   UNL d   1     -16.602   8.163  22.740  0.00  0.00     0.017 A 
ATOM     16  C   UNL d   1     -15.865   8.837  22.693  0.00  0.00     0.038 A 
ATOM     17  C   UNL d   1     -16.045   9.751  22.330  0.00  0.00     0.076 A 
BRANCH  14  18
ATOM     18  C   UNL d   1     -18.257   7.729  22.471  0.00  0.00     0.090 A 
ATOM     19  O   UNL d   1     -18.291   7.078  23.229  0.00  0.00    -0.309 OA
ATOM     20  C   UNL d   1     -19.029   6.404  23.276  0.00  0.00     0.095 A 
ATOM     21  C   UNL d   1     -19.732   6.382  22.565  0.00  0.00     0.081 A 
ATOM     22  C   UNL d   1     -19.051   5.731  24.071  0.00  0.00     0.075 A 
ATOM     23  C   UNL d   1     -19.698   7.034  21.808  0.00  0.00     0.190 A 
ATOM     24  C   UNL d   1     -20.506   5.686  22.601  0.00  0.00     0.085 A 
ATOM     25  O   UNL d   1     -20.401   7.012  21.097  0.00  0.00    -0.287 OA
ATOM     26  C   UNL d   1     -18.961   7.707  21.761  0.00  0.00     0.094 A 
ATOM     27  C   UNL d   1     -20.548   5.003  23.387  0.00  0.00     0.074 A 
ATOM     28  C   UNL d   1     -19.816   5.026  24.127  0.00  0.00     0.071 A 
BRANCH  24  29
ATOM     29  O   UNL d   1     -21.204   5.673  21.885  0.00  0.00    -0.360 OA
ATOM     30  H   UNL d   1     -21.380   6.202  21.613  0.00  0.00     0.217 HD
ENDBRANCH  24  29
BRANCH  28  31
ATOM     31  O   UNL d   1     -19.846   4.376  24.886  0.00  0.00    -0.361 OA
ATOM     32  H   UNL d   1     -20.383   4.108  25.044  0.00  0.00     0.217 HD
ENDBRANCH  28  31
ENDBRANCH  14  18
BRANCH  17  33
ATOM     33  O   UNL d   1     -15.308  10.425  22.283  0.00  0.00    -0.360 OA
ATOM     34  H   UNL d   1     -15.423  10.996  22.070  0.00  0.00     0.217 HD
ENDBRANCH  17  33
ENDBRANCH   3  12
BRANCH   6  35
ATOM     35  O   UNL d   1     -17.623  11.438  23.227  0.00  0.00    -0.360 OA
ATOM     36  H   UNL d   1     -17.524  10.867  23.450  0.00  0.00     0.217 HD
ENDBRANCH   6  35
BRANCH   9  37
ATOM     37  C   UNL d   1     -16.163   9.797  18.445  0.00  0.00    -0.002 A 
ATOM     38  C   UNL d   1     -15.206   9.509  18.488  0.00  0.00     0.017 A 
ATOM     39  C   UNL d   1     -14.876   8.783  17.885  0.00  0.00     0.037 A 
ATOM     40  C   UNL d   1     -15.502   8.346  17.240  0.00  0.00     0.065 A 
ATOM     41  C   UNL d   1     -16.458   8.635  17.197  0.00  0.00     0.037 A 
ATOM     42  C   UNL d   1     -16.788   9.361  17.800  0.00  0.00     0.017 A 
BRANCH  40  43
ATOM     43  O   UNL d   1     -15.172   7.620  16.636  0.00  0.00    -0.361 OA
ATOM     44  H   UNL d   1     -15.531   7.413  16.174  0.00  0.00     0.217 HD
ENDBRANCH  40  43
ENDBRANCH   9  37
BRANCH   7  45
ATOM     45  O   UNL d   1     -17.685  13.647  20.560  0.00  0.00    -0.360 OA
ATOM     46  H   UNL d   1     -17.463  13.809  20.005  0.00  0.00     0.217 HD
ENDBRANCH   7  45
TORSDOF 9
ENDMDL
