MODEL 1
REMARK VINA RESULT:   -11.485      0.000      0.000
REMARK INTER + INTRA:          -4.360
REMARK INTER:                 -15.098
REMARK INTRA:                  10.738
REMARK UNBOUND:                10.482
REMARK  5 active torsions:
REMARK  status: ('A' for Active; 'I' for Inactive)
REMARK    1  A    between atoms: C_6  and  C_13 
REMARK    2  A    between atoms: C_13  and  C_19 
REMARK    3  A    between atoms: C_19  and  C_24 
REMARK    4  A    between atoms: C_24  and  C_25 
REMARK    5  A    between atoms: C_25  and  C_26 
ROOT
ATOM      1  O   UNL d   1     -34.160  -2.769  37.414  0.00  0.00    -0.293 OA
ATOM      2  C   UNL d   1     -34.346   2.771  34.644  0.00  0.00    -0.036 A 
ATOM      3  C   UNL d   1     -33.623   2.575  35.306  0.00  0.00    -0.002 A 
ATOM      4  C   UNL d   1     -33.586   1.684  35.757  0.00  0.00    -0.004 A 
ATOM      5  C   UNL d   1     -34.272   0.988  35.546  0.00  0.00     0.002 A 
ATOM      6  C   UNL d   1     -34.211   3.697  34.311  0.00  0.00    -0.002 A 
ATOM      7  C   UNL d   1     -35.032   2.075  34.433  0.00  0.00     0.010 A 
ATOM      8  C   UNL d   1     -33.048   3.383  35.377  0.00  0.00     0.006 A 
ATOM      9  C   UNL d   1     -34.247   0.054  36.008  0.00  0.00    -0.016 A 
ATOM     10  C   UNL d   1     -34.995   1.183  34.884  0.00  0.00     0.007 A 
ATOM     11  C   UNL d   1     -33.411   4.075  34.762  0.00  0.00     0.006 A 
ATOM     12  C   UNL d   1     -32.826   1.495  36.445  0.00  0.00     0.010 A 
ATOM     13  C   UNL d   1     -35.069   2.966  33.981  0.00  0.00     0.016 C 
ATOM     14  C   UNL d   1     -33.496  -0.157  36.700  0.00  0.00    -0.068 A 
ATOM     15  C   UNL d   1     -32.781   0.568  36.920  0.00  0.00     0.035 A 
ATOM     16  C   UNL d   1     -35.002  -0.685  35.763  0.00  0.00     0.022 A 
ATOM     17  C   UNL d   1     -34.967   0.257  35.345  0.00  0.00     0.020 C 
ATOM     18  C   UNL d   1     -34.976  -1.657  36.245  0.00  0.00     0.084 A 
ATOM     19  C   UNL d   1     -33.449  -1.121  37.194  0.00  0.00     0.053 A 
ATOM     20  C   UNL d   1     -34.194  -1.877  36.965  0.00  0.00     0.149 A 
ENDROOT
BRANCH   6  21
ATOM     21  C   UNL d   1     -34.782   4.168  33.638  0.00  0.00    -0.014 C 
ATOM     22  C   UNL d   1     -35.739   4.369  33.848  0.00  0.00     0.010 C 
BRANCH  21  23
ATOM     23  C   UNL d   1     -34.396   4.438  32.755  0.00  0.00     0.005 C 
BRANCH  23  24
ATOM     24  C   UNL d   1     -34.601   5.341  32.376  0.00  0.00     0.005 C 
BRANCH  24  25
ATOM     25  C   UNL d   1     -34.052   5.701  31.621  0.00  0.00    -0.015 C 
ATOM     26  C   UNL d   1     -33.808   5.109  30.853  0.00  0.00     0.010 C 
BRANCH  25  27
ATOM     27  C   UNL d   1     -33.748   6.653  31.636  0.00  0.00    -0.019 C 
ATOM     28  C   UNL d   1     -34.370   7.371  31.949  0.00  0.00     0.010 C 
ATOM     29  C   UNL d   1     -32.822   6.888  31.338  0.00  0.00     0.010 C 
ENDBRANCH  25  27
ENDBRANCH  24  25
ENDBRANCH  23  24
ENDBRANCH  21  23
ENDBRANCH   6  21
TORSDOF 5
ENDMDL
MODEL 2
REMARK VINA RESULT:   -11.371     20.875     21.800
REMARK INTER + INTRA:          -4.213
REMARK INTER:                 -14.821
REMARK INTRA:                  10.608
REMARK UNBOUND:                10.482
REMARK  5 active torsions:
REMARK  status: ('A' for Active; 'I' for Inactive)
REMARK    1  A    between atoms: C_6  and  C_13 
REMARK    2  A    between atoms: C_13  and  C_19 
REMARK    3  A    between atoms: C_19  and  C_24 
REMARK    4  A    between atoms: C_24  and  C_25 
REMARK    5  A    between atoms: C_25  and  C_26 
ROOT
ATOM      1  O   UNL d   1     -20.386  -8.242  25.713  0.00  0.00    -0.293 OA
ATOM      2  C   UNL d   1     -14.999  -5.589  27.245  0.00  0.00    -0.036 A 
ATOM      3  C   UNL d   1     -15.192  -6.522  27.548  0.00  0.00    -0.002 A 
ATOM      4  C   UNL d   1     -16.059  -6.957  27.305  0.00  0.00    -0.004 A 
ATOM      5  C   UNL d   1     -16.733  -6.459  26.759  0.00  0.00     0.002 A 
ATOM      6  C   UNL d   1     -14.099  -5.339  27.584  0.00  0.00    -0.002 A 
ATOM      7  C   UNL d   1     -15.673  -5.091  26.700  0.00  0.00     0.010 A 
ATOM      8  C   UNL d   1     -14.410  -6.841  28.071  0.00  0.00     0.006 A 
ATOM      9  C   UNL d   1     -17.640  -6.899  26.498  0.00  0.00    -0.016 A 
ATOM     10  C   UNL d   1     -16.540  -5.526  26.457  0.00  0.00     0.007 A 
ATOM     11  C   UNL d   1     -13.735  -6.111  28.094  0.00  0.00     0.006 A 
ATOM     12  C   UNL d   1     -16.246  -7.930  27.628  0.00  0.00     0.010 A 
ATOM     13  C   UNL d   1     -14.806  -4.655  26.943  0.00  0.00     0.016 C 
ATOM     14  C   UNL d   1     -17.849  -7.872  26.810  0.00  0.00    -0.068 A 
ATOM     15  C   UNL d   1     -17.147  -8.391  27.378  0.00  0.00     0.035 A 
ATOM     16  C   UNL d   1     -18.356  -6.339  25.905  0.00  0.00     0.022 A 
ATOM     17  C   UNL d   1     -17.440  -5.966  26.199  0.00  0.00     0.020 C 
ATOM     18  C   UNL d   1     -19.301  -6.798  25.633  0.00  0.00     0.084 A 
ATOM     19  C   UNL d   1     -18.787  -8.351  26.550  0.00  0.00     0.053 A 
ATOM     20  C   UNL d   1     -19.518  -7.810  25.958  0.00  0.00     0.149 A 
ENDROOT
BRANCH   6  21
ATOM     21  C   UNL d   1     -13.639  -4.463  27.438  0.00  0.00    -0.014 C 
ATOM     22  C   UNL d   1     -13.251  -4.246  26.543  0.00  0.00     0.010 C 
BRANCH  21  23
ATOM     23  C   UNL d   1     -13.567  -3.805  28.188  0.00  0.00     0.005 C 
BRANCH  23  24
ATOM     24  C   UNL d   1     -12.965  -3.011  28.099  0.00  0.00     0.005 C 
BRANCH  24  25
ATOM     25  C   UNL d   1     -12.815  -2.408  28.884  0.00  0.00    -0.015 C 
ATOM     26  C   UNL d   1     -12.931  -2.759  29.813  0.00  0.00     0.010 C 
BRANCH  25  27
ATOM     27  C   UNL d   1     -12.549  -1.456  28.738  0.00  0.00    -0.019 C 
ATOM     28  C   UNL d   1     -11.630  -1.150  28.989  0.00  0.00     0.010 C 
ATOM     29  C   UNL d   1     -13.200  -0.809  28.341  0.00  0.00     0.010 C 
ENDBRANCH  25  27
ENDBRANCH  24  25
ENDBRANCH  23  24
ENDBRANCH  21  23
ENDBRANCH   6  21
TORSDOF 5
ENDMDL
MODEL 3
REMARK VINA RESULT:   -11.239      1.070      2.260
REMARK INTER + INTRA:          -4.043
REMARK INTER:                 -14.769
REMARK INTRA:                  10.726
REMARK UNBOUND:                10.482
REMARK  5 active torsions:
REMARK  status: ('A' for Active; 'I' for Inactive)
REMARK    1  A    between atoms: C_6  and  C_13 
REMARK    2  A    between atoms: C_13  and  C_19 
REMARK    3  A    between atoms: C_19  and  C_24 
REMARK    4  A    between atoms: C_24  and  C_25 
REMARK    5  A    between atoms: C_25  and  C_26 
ROOT
ATOM      1  O   UNL d   1     -33.656  -0.563  38.207  0.00  0.00    -0.293 OA
ATOM      2  C   UNL d   1     -34.632   3.411  33.553  0.00  0.00    -0.036 A 
ATOM      3  C   UNL d   1     -35.403   2.904  33.937  0.00  0.00    -0.002 A 
ATOM      4  C   UNL d   1     -35.254   2.260  34.688  0.00  0.00    -0.004 A 
ATOM      5  C   UNL d   1     -34.334   2.125  35.055  0.00  0.00     0.002 A 
ATOM      6  C   UNL d   1     -34.982   3.991  32.826  0.00  0.00    -0.002 A 
ATOM      7  C   UNL d   1     -33.712   3.276  33.920  0.00  0.00     0.010 A 
ATOM      8  C   UNL d   1     -36.223   3.174  33.444  0.00  0.00     0.006 A 
ATOM      9  C   UNL d   1     -34.163   1.458  35.837  0.00  0.00    -0.016 A 
ATOM     10  C   UNL d   1     -33.563   2.633  34.671  0.00  0.00     0.007 A 
ATOM     11  C   UNL d   1     -35.963   3.845  32.758  0.00  0.00     0.006 A 
ATOM     12  C   UNL d   1     -36.068   1.738  35.078  0.00  0.00     0.010 A 
ATOM     13  C   UNL d   1     -33.861   3.919  33.169  0.00  0.00     0.016 C 
ATOM     14  C   UNL d   1     -34.962   0.926  36.243  0.00  0.00    -0.068 A 
ATOM     15  C   UNL d   1     -35.920   1.067  35.861  0.00  0.00     0.035 A 
ATOM     16  C   UNL d   1     -33.156   1.328  36.219  0.00  0.00     0.022 A 
ATOM     17  C   UNL d   1     -33.397   1.970  35.448  0.00  0.00     0.020 C 
ATOM     18  C   UNL d   1     -32.977   0.634  37.034  0.00  0.00     0.084 A 
ATOM     19  C   UNL d   1     -34.808   0.226  37.058  0.00  0.00     0.053 A 
ATOM     20  C   UNL d   1     -33.809   0.079  37.456  0.00  0.00     0.149 A 
ENDROOT
BRANCH   6  21
ATOM     21  C   UNL d   1     -34.441   4.614  32.260  0.00  0.00    -0.014 C 
ATOM     22  C   UNL d   1     -33.997   4.276  31.430  0.00  0.00     0.010 C 
BRANCH  21  23
ATOM     23  C   UNL d   1     -34.344   5.574  32.525  0.00  0.00     0.005 C 
BRANCH  23  24
ATOM     24  C   UNL d   1     -34.004   6.242  31.863  0.00  0.00     0.005 C 
BRANCH  24  25
ATOM     25  C   UNL d   1     -34.008   7.216  32.090  0.00  0.00    -0.015 C 
ATOM     26  C   UNL d   1     -34.679   7.575  32.740  0.00  0.00     0.010 C 
BRANCH  25  27
ATOM     27  C   UNL d   1     -33.343   7.830  31.667  0.00  0.00    -0.019 C 
ATOM     28  C   UNL d   1     -33.545   8.806  31.584  0.00  0.00     0.010 C 
ATOM     29  C   UNL d   1     -32.473   7.469  31.327  0.00  0.00     0.010 C 
ENDBRANCH  25  27
ENDBRANCH  24  25
ENDBRANCH  23  24
ENDBRANCH  21  23
ENDBRANCH   6  21
TORSDOF 5
ENDMDL
MODEL 4
REMARK VINA RESULT:   -10.978     21.180     22.362
REMARK INTER + INTRA:          -3.706
REMARK INTER:                 -14.066
REMARK INTRA:                  10.360
REMARK UNBOUND:                10.482
REMARK  5 active torsions:
REMARK  status: ('A' for Active; 'I' for Inactive)
REMARK    1  A    between atoms: C_6  and  C_13 
REMARK    2  A    between atoms: C_13  and  C_19 
REMARK    3  A    between atoms: C_19  and  C_24 
REMARK    4  A    between atoms: C_24  and  C_25 
REMARK    5  A    between atoms: C_25  and  C_26 
ROOT
ATOM      1  O   UNL d   1     -20.493 -10.502  27.217  0.00  0.00    -0.293 OA
ATOM      2  C   UNL d   1     -15.264  -7.179  27.339  0.00  0.00    -0.036 A 
ATOM      3  C   UNL d   1     -16.123  -6.736  27.085  0.00  0.00    -0.002 A 
ATOM      4  C   UNL d   1     -16.972  -7.265  27.063  0.00  0.00    -0.004 A 
ATOM      5  C   UNL d   1     -16.960  -8.238  27.295  0.00  0.00     0.002 A 
ATOM      6  C   UNL d   1     -14.546  -6.494  27.301  0.00  0.00    -0.002 A 
ATOM      7  C   UNL d   1     -15.252  -8.152  27.570  0.00  0.00     0.010 A 
ATOM      8  C   UNL d   1     -15.929  -5.780  26.893  0.00  0.00     0.006 A 
ATOM      9  C   UNL d   1     -17.836  -8.802  27.276  0.00  0.00    -0.016 A 
ATOM     10  C   UNL d   1     -16.100  -8.681  27.548  0.00  0.00     0.007 A 
ATOM     11  C   UNL d   1     -14.955  -5.631  27.026  0.00  0.00     0.006 A 
ATOM     12  C   UNL d   1     -17.860  -6.789  26.796  0.00  0.00     0.010 A 
ATOM     13  C   UNL d   1     -14.404  -7.623  27.592  0.00  0.00     0.016 C 
ATOM     14  C   UNL d   1     -18.735  -8.347  27.013  0.00  0.00    -0.068 A 
ATOM     15  C   UNL d   1     -18.747  -7.334  26.771  0.00  0.00     0.035 A 
ATOM     16  C   UNL d   1     -17.798  -9.856  27.532  0.00  0.00     0.022 A 
ATOM     17  C   UNL d   1     -16.972  -9.239  27.529  0.00  0.00     0.020 C 
ATOM     18  C   UNL d   1     -18.710 -10.444  27.513  0.00  0.00     0.084 A 
ATOM     19  C   UNL d   1     -19.660  -8.914  26.986  0.00  0.00     0.053 A 
ATOM     20  C   UNL d   1     -19.647  -9.970  27.238  0.00  0.00     0.149 A 
ENDROOT
BRANCH   6  21
ATOM     21  C   UNL d   1     -13.578  -6.646  27.505  0.00  0.00    -0.014 C 
ATOM     22  C   UNL d   1     -12.976  -7.038  26.809  0.00  0.00     0.010 C 
BRANCH  21  23
ATOM     23  C   UNL d   1     -13.212  -6.405  28.404  0.00  0.00     0.005 C 
BRANCH  23  24
ATOM     24  C   UNL d   1     -12.361  -5.885  28.475  0.00  0.00     0.005 C 
BRANCH  24  25
ATOM     25  C   UNL d   1     -12.105  -5.461  29.344  0.00  0.00    -0.015 C 
ATOM     26  C   UNL d   1     -12.081  -6.011  30.179  0.00  0.00     0.010 C 
BRANCH  25  27
ATOM     27  C   UNL d   1     -11.874  -4.490  29.377  0.00  0.00    -0.019 C 
ATOM     28  C   UNL d   1     -11.081  -4.148  28.871  0.00  0.00     0.010 C 
ATOM     29  C   UNL d   1     -12.434  -3.859  29.916  0.00  0.00     0.010 C 
ENDBRANCH  25  27
ENDBRANCH  24  25
ENDBRANCH  23  24
ENDBRANCH  21  23
ENDBRANCH   6  21
TORSDOF 5
ENDMDL
MODEL 5
REMARK VINA RESULT:   -10.810     19.656     20.636
REMARK INTER + INTRA:          -3.489
REMARK INTER:                 -14.277
REMARK INTRA:                  10.789
REMARK UNBOUND:                10.482
REMARK  5 active torsions:
REMARK  status: ('A' for Active; 'I' for Inactive)
REMARK    1  A    between atoms: C_6  and  C_13 
REMARK    2  A    between atoms: C_13  and  C_19 
REMARK    3  A    between atoms: C_19  and  C_24 
REMARK    4  A    between atoms: C_24  and  C_25 
REMARK    5  A    between atoms: C_25  and  C_26 
ROOT
ATOM      1  O   UNL d   1     -21.106 -13.297  28.490  0.00  0.00    -0.293 OA
ATOM      2  C   UNL d   1     -19.058  -7.833  26.405  0.00  0.00    -0.036 A 
ATOM      3  C   UNL d   1     -19.751  -8.331  25.883  0.00  0.00    -0.002 A 
ATOM      4  C   UNL d   1     -20.086  -9.213  26.213  0.00  0.00    -0.004 A 
ATOM      5  C   UNL d   1     -19.729  -9.598  27.064  0.00  0.00     0.002 A 
ATOM      6  C   UNL d   1     -18.859  -6.990  25.918  0.00  0.00    -0.002 A 
ATOM      7  C   UNL d   1     -18.700  -8.218  27.256  0.00  0.00     0.010 A 
ATOM      8  C   UNL d   1     -19.974  -7.791  25.079  0.00  0.00     0.006 A 
ATOM      9  C   UNL d   1     -20.069 -10.516  27.420  0.00  0.00    -0.016 A 
ATOM     10  C   UNL d   1     -19.036  -9.100  27.586  0.00  0.00     0.007 A 
ATOM     11  C   UNL d   1     -19.423  -6.963  25.101  0.00  0.00     0.006 A 
ATOM     12  C   UNL d   1     -20.809  -9.720  25.659  0.00  0.00     0.010 A 
ATOM     13  C   UNL d   1     -18.364  -7.335  26.926  0.00  0.00     0.016 C 
ATOM     14  C   UNL d   1     -20.791 -11.040  26.883  0.00  0.00    -0.068 A 
ATOM     15  C   UNL d   1     -21.164 -10.640  25.996  0.00  0.00     0.035 A 
ATOM     16  C   UNL d   1     -19.667 -10.913  28.346  0.00  0.00     0.022 A 
ATOM     17  C   UNL d   1     -19.376 -10.012  27.936  0.00  0.00     0.020 C 
ATOM     18  C   UNL d   1     -20.021 -11.869  28.718  0.00  0.00     0.084 A 
ATOM     19  C   UNL d   1     -21.161 -11.998  27.233  0.00  0.00     0.053 A 
ATOM     20  C   UNL d   1     -20.773 -12.415  28.157  0.00  0.00     0.149 A 
ENDROOT
BRANCH   6  21
ATOM     21  C   UNL d   1     -18.203  -6.289  26.202  0.00  0.00    -0.014 C 
ATOM     22  C   UNL d   1     -18.504  -5.526  26.774  0.00  0.00     0.010 C 
BRANCH  21  23
ATOM     23  C   UNL d   1     -17.247  -6.352  25.914  0.00  0.00     0.005 C 
BRANCH  23  24
ATOM     24  C   UNL d   1     -16.597  -5.642  26.184  0.00  0.00     0.005 C 
BRANCH  24  25
ATOM     25  C   UNL d   1     -15.617  -5.782  26.039  0.00  0.00    -0.015 C 
ATOM     26  C   UNL d   1     -15.292  -6.191  25.186  0.00  0.00     0.010 C 
BRANCH  25  27
ATOM     27  C   UNL d   1     -14.964  -5.511  26.745  0.00  0.00    -0.019 C 
ATOM     28  C   UNL d   1     -14.576  -6.201  27.357  0.00  0.00     0.010 C 
ATOM     29  C   UNL d   1     -14.699  -4.551  26.842  0.00  0.00     0.010 C 
ENDBRANCH  25  27
ENDBRANCH  24  25
ENDBRANCH  23  24
ENDBRANCH  21  23
ENDBRANCH   6  21
TORSDOF 5
ENDMDL
