MODEL 1
REMARK VINA RESULT:    -8.777      0.000      0.000
REMARK INTER + INTRA:          -8.792
REMARK INTER:                  -9.814
REMARK INTRA:                   1.022
REMARK UNBOUND:                 1.011
REMARK  3 active torsions:
REMARK  status: ('A' for Active; 'I' for Inactive)
REMARK    1  A    between atoms: O_2  and  C_10 
REMARK    2  A    between atoms: O_4  and  C_13 
REMARK    3  A    between atoms: C_7  and  C_9 
ROOT
ATOM      1  O   UNL d   1     -33.570   5.215  33.441  0.00  0.00    -0.309 OA
ATOM      2  O   UNL d   1     -35.933   3.717  32.357  0.00  0.00    -0.287 OA
ATOM      3  C   UNL d   1     -34.606   3.827  33.465  0.00  0.00     0.081 A 
ATOM      4  C   UNL d   1     -33.819   4.327  33.826  0.00  0.00     0.095 A 
ATOM      5  C   UNL d   1     -34.109   5.604  32.694  0.00  0.00     0.090 A 
ATOM      6  C   UNL d   1     -35.145   4.216  32.718  0.00  0.00     0.190 A 
ATOM      7  C   UNL d   1     -34.877   2.901  33.857  0.00  0.00     0.085 A 
ATOM      8  C   UNL d   1     -34.897   5.105  32.332  0.00  0.00     0.094 A 
ATOM      9  C   UNL d   1     -33.248   3.935  34.604  0.00  0.00     0.075 A 
ATOM     10  C   UNL d   1     -33.500   3.010  35.011  0.00  0.00     0.071 A 
ATOM     11  C   UNL d   1     -34.320   2.490  34.635  0.00  0.00     0.074 A 
ENDROOT
BRANCH   5  12
ATOM     12  C   UNL d   1     -33.861   6.493  32.308  0.00  0.00    -0.002 A 
ATOM     13  C   UNL d   1     -34.392   7.307  32.544  0.00  0.00     0.014 A 
ATOM     14  C   UNL d   1     -34.144   8.195  32.158  0.00  0.00     0.001 A 
ATOM     15  C   UNL d   1     -33.364   8.270  31.537  0.00  0.00     0.000 A 
ATOM     16  C   UNL d   1     -32.833   7.456  31.301  0.00  0.00     0.001 A 
ATOM     17  C   UNL d   1     -33.081   6.568  31.687  0.00  0.00     0.014 A 
ENDBRANCH   5  12
BRANCH   7  18
ATOM     18  O   UNL d   1     -35.666   2.411  33.488  0.00  0.00    -0.360 OA
ATOM     19  H   UNL d   1     -35.612   2.090  32.960  0.00  0.00     0.217 HD
ENDBRANCH   7  18
BRANCH  10  20
ATOM     20  O   UNL d   1     -32.958   2.624  35.758  0.00  0.00    -0.361 OA
ATOM     21  H   UNL d   1     -33.179   2.634  36.338  0.00  0.00     0.217 HD
ENDBRANCH  10  20
TORSDOF 3
ENDMDL
MODEL 2
REMARK VINA RESULT:    -8.322     11.951     12.731
REMARK INTER + INTRA:          -8.284
REMARK INTER:                  -9.285
REMARK INTRA:                   1.001
REMARK UNBOUND:                 1.011
REMARK  3 active torsions:
REMARK  status: ('A' for Active; 'I' for Inactive)
REMARK    1  A    between atoms: O_2  and  C_10 
REMARK    2  A    between atoms: O_4  and  C_13 
REMARK    3  A    between atoms: C_7  and  C_9 
ROOT
ATOM      1  O   UNL d   1     -32.949   0.349  21.106  0.00  0.00    -0.309 OA
ATOM      2  O   UNL d   1     -31.152  -0.604  23.311  0.00  0.00    -0.287 OA
ATOM      3  C   UNL d   1     -32.449  -0.897  22.201  0.00  0.00     0.081 A 
ATOM      4  C   UNL d   1     -33.048  -0.579  21.466  0.00  0.00     0.095 A 
ATOM      5  C   UNL d   1     -32.251   0.959  21.482  0.00  0.00     0.090 A 
ATOM      6  C   UNL d   1     -31.751  -0.287  22.576  0.00  0.00     0.190 A 
ATOM      7  C   UNL d   1     -32.540  -1.860  22.585  0.00  0.00     0.085 A 
ATOM      8  C   UNL d   1     -31.652   0.641  22.217  0.00  0.00     0.094 A 
ATOM      9  C   UNL d   1     -33.779  -1.202  21.065  0.00  0.00     0.075 A 
ATOM     10  C   UNL d   1     -33.888  -2.170  21.434  0.00  0.00     0.071 A 
ATOM     11  C   UNL d   1     -33.265  -2.501  22.199  0.00  0.00     0.074 A 
ENDROOT
BRANCH   5  12
ATOM     12  C   UNL d   1     -32.152   1.887  21.122  0.00  0.00    -0.002 A 
ATOM     13  C   UNL d   1     -32.715   2.628  21.489  0.00  0.00     0.014 A 
ATOM     14  C   UNL d   1     -32.616   3.556  21.129  0.00  0.00     0.001 A 
ATOM     15  C   UNL d   1     -31.955   3.743  20.403  0.00  0.00     0.000 A 
ATOM     16  C   UNL d   1     -31.392   3.002  20.036  0.00  0.00     0.001 A 
ATOM     17  C   UNL d   1     -31.491   2.074  20.396  0.00  0.00     0.014 A 
ENDBRANCH   5  12
BRANCH   7  18
ATOM     18  O   UNL d   1     -31.936  -2.167  23.320  0.00  0.00    -0.360 OA
ATOM     19  H   UNL d   1     -31.544  -1.768  23.586  0.00  0.00     0.217 HD
ENDBRANCH   7  18
BRANCH  10  20
ATOM     20  O   UNL d   1     -34.588  -2.777  21.056  0.00  0.00    -0.361 OA
ATOM     21  H   UNL d   1     -34.467  -3.381  20.983  0.00  0.00     0.217 HD
ENDBRANCH  10  20
TORSDOF 3
ENDMDL
MODEL 3
REMARK VINA RESULT:    -8.229     21.658     22.721
REMARK INTER + INTRA:          -8.180
REMARK INTER:                  -9.221
REMARK INTRA:                   1.041
REMARK UNBOUND:                 1.011
REMARK  3 active torsions:
REMARK  status: ('A' for Active; 'I' for Inactive)
REMARK    1  A    between atoms: O_2  and  C_10 
REMARK    2  A    between atoms: O_4  and  C_13 
REMARK    3  A    between atoms: C_7  and  C_9 
ROOT
ATOM      1  O   UNL d   1     -15.876  -6.513  27.173  0.00  0.00    -0.309 OA
ATOM      2  O   UNL d   1     -17.081  -9.195  27.771  0.00  0.00    -0.287 OA
ATOM      3  C   UNL d   1     -17.266  -7.538  27.300  0.00  0.00     0.081 A 
ATOM      4  C   UNL d   1     -16.865  -6.644  27.100  0.00  0.00     0.095 A 
ATOM      5  C   UNL d   1     -15.289  -7.276  27.445  0.00  0.00     0.090 A 
ATOM      6  C   UNL d   1     -16.679  -8.301  27.572  0.00  0.00     0.190 A 
ATOM      7  C   UNL d   1     -18.294  -7.690  27.229  0.00  0.00     0.085 A 
ATOM      8  C   UNL d   1     -15.690  -8.169  27.644  0.00  0.00     0.094 A 
ATOM      9  C   UNL d   1     -17.463  -5.841  26.816  0.00  0.00     0.075 A 
ATOM     10  C   UNL d   1     -18.494  -5.970  26.738  0.00  0.00     0.071 A 
ATOM     11  C   UNL d   1     -18.912  -6.900  26.946  0.00  0.00     0.074 A 
ENDROOT
BRANCH   5  12
ATOM     12  C   UNL d   1     -14.300  -7.144  27.517  0.00  0.00    -0.002 A 
ATOM     13  C   UNL d   1     -13.921  -6.602  28.267  0.00  0.00     0.014 A 
ATOM     14  C   UNL d   1     -12.933  -6.470  28.339  0.00  0.00     0.001 A 
ATOM     15  C   UNL d   1     -12.323  -6.881  27.662  0.00  0.00     0.000 A 
ATOM     16  C   UNL d   1     -12.701  -7.424  26.912  0.00  0.00     0.001 A 
ATOM     17  C   UNL d   1     -13.690  -7.555  26.840  0.00  0.00     0.014 A 
ENDBRANCH   5  12
BRANCH   7  18
ATOM     18  O   UNL d   1     -18.684  -8.588  27.430  0.00  0.00    -0.360 OA
ATOM     19  H   UNL d   1     -18.597  -8.846  27.987  0.00  0.00     0.217 HD
ENDBRANCH   7  18
BRANCH  10  20
ATOM     20  O   UNL d   1     -19.077  -5.205  26.466  0.00  0.00    -0.361 OA
ATOM     21  H   UNL d   1     -19.692  -5.245  26.533  0.00  0.00     0.217 HD
ENDBRANCH  10  20
TORSDOF 3
ENDMDL
MODEL 4
REMARK VINA RESULT:    -8.182     20.450     21.482
REMARK INTER + INTRA:          -8.127
REMARK INTER:                  -9.340
REMARK INTRA:                   1.212
REMARK UNBOUND:                 1.011
REMARK  3 active torsions:
REMARK  status: ('A' for Active; 'I' for Inactive)
REMARK    1  A    between atoms: O_2  and  C_10 
REMARK    2  A    between atoms: O_4  and  C_13 
REMARK    3  A    between atoms: C_7  and  C_9 
ROOT
ATOM      1  O   UNL d   1     -20.075  -8.989  26.384  0.00  0.00    -0.309 OA
ATOM      2  O   UNL d   1     -18.128 -10.784  27.794  0.00  0.00    -0.287 OA
ATOM      3  C   UNL d   1     -19.627 -10.562  26.955  0.00  0.00     0.081 A 
ATOM      4  C   UNL d   1     -20.276  -9.964  26.485  0.00  0.00     0.095 A 
ATOM      5  C   UNL d   1     -19.225  -8.613  26.753  0.00  0.00     0.090 A 
ATOM      6  C   UNL d   1     -18.777 -10.186  27.324  0.00  0.00     0.190 A 
ATOM      7  C   UNL d   1     -19.822 -11.579  27.067  0.00  0.00     0.085 A 
ATOM      8  C   UNL d   1     -18.576  -9.212  27.223  0.00  0.00     0.094 A 
ATOM      9  C   UNL d   1     -21.165 -10.341  26.094  0.00  0.00     0.075 A 
ATOM     10  C   UNL d   1     -21.381 -11.355  26.195  0.00  0.00     0.071 A 
ATOM     11  C   UNL d   1     -20.705 -11.978  26.684  0.00  0.00     0.074 A 
ENDROOT
BRANCH   5  12
ATOM     12  C   UNL d   1     -19.024  -7.639  26.653  0.00  0.00    -0.002 A 
ATOM     13  C   UNL d   1     -19.189  -7.182  25.779  0.00  0.00     0.014 A 
ATOM     14  C   UNL d   1     -18.988  -6.207  25.678  0.00  0.00     0.001 A 
ATOM     15  C   UNL d   1     -18.623  -5.690  26.452  0.00  0.00     0.000 A 
ATOM     16  C   UNL d   1     -18.458  -6.147  27.326  0.00  0.00     0.001 A 
ATOM     17  C   UNL d   1     -18.659  -7.121  27.427  0.00  0.00     0.014 A 
ENDBRANCH   5  12
BRANCH   7  18
ATOM     18  O   UNL d   1     -19.166 -12.168  27.539  0.00  0.00    -0.360 OA
ATOM     19  H   UNL d   1     -19.167 -12.198  28.157  0.00  0.00     0.217 HD
ENDBRANCH   7  18
BRANCH  10  20
ATOM     20  O   UNL d   1     -22.232 -11.727  25.824  0.00  0.00    -0.361 OA
ATOM     21  H   UNL d   1     -22.216 -12.106  25.334  0.00  0.00     0.217 HD
ENDBRANCH  10  20
TORSDOF 3
ENDMDL
MODEL 5
REMARK VINA RESULT:    -8.144     20.763     21.769
REMARK INTER + INTRA:          -8.085
REMARK INTER:                  -9.121
REMARK INTRA:                   1.036
REMARK UNBOUND:                 1.011
REMARK  3 active torsions:
REMARK  status: ('A' for Active; 'I' for Inactive)
REMARK    1  A    between atoms: O_2  and  C_10 
REMARK    2  A    between atoms: O_4  and  C_13 
REMARK    3  A    between atoms: C_7  and  C_9 
ROOT
ATOM      1  O   UNL d   1     -19.677  -9.203  27.221  0.00  0.00    -0.309 OA
ATOM      2  O   UNL d   1     -17.925 -10.896  25.470  0.00  0.00    -0.287 OA
ATOM      3  C   UNL d   1     -19.198 -10.762  26.637  0.00  0.00     0.081 A 
ATOM      4  C   UNL d   1     -19.782 -10.197  27.221  0.00  0.00     0.095 A 
ATOM      5  C   UNL d   1     -18.988  -8.773  26.637  0.00  0.00     0.090 A 
ATOM      6  C   UNL d   1     -18.509 -10.332  26.054  0.00  0.00     0.190 A 
ATOM      7  C   UNL d   1     -19.296 -11.799  26.626  0.00  0.00     0.085 A 
ATOM      8  C   UNL d   1     -18.404  -9.337  26.054  0.00  0.00     0.094 A 
ATOM      9  C   UNL d   1     -20.504 -10.631  27.834  0.00  0.00     0.075 A 
ATOM     10  C   UNL d   1     -20.620 -11.666  27.839  0.00  0.00     0.071 A 
ATOM     11  C   UNL d   1     -20.012 -12.254  27.231  0.00  0.00     0.074 A 
ENDROOT
BRANCH   5  12
ATOM     12  C   UNL d   1     -18.883  -7.779  26.638  0.00  0.00    -0.002 A 
ATOM     13  C   UNL d   1     -18.477  -7.319  27.427  0.00  0.00     0.014 A 
ATOM     14  C   UNL d   1     -18.372  -6.324  27.428  0.00  0.00     0.001 A 
ATOM     15  C   UNL d   1     -18.673  -5.790  26.638  0.00  0.00     0.000 A 
ATOM     16  C   UNL d   1     -19.079  -6.249  25.848  0.00  0.00     0.001 A 
ATOM     17  C   UNL d   1     -19.184  -7.244  25.848  0.00  0.00     0.014 A 
ENDBRANCH   5  12
BRANCH   7  18
ATOM     18  O   UNL d   1     -18.707 -12.353  26.039  0.00  0.00    -0.360 OA
ATOM     19  H   UNL d   1     -18.380 -12.084  25.587  0.00  0.00     0.217 HD
ENDBRANCH   7  18
BRANCH  10  20
ATOM     20  O   UNL d   1     -21.310 -12.092  28.424  0.00  0.00    -0.361 OA
ATOM     21  H   UNL d   1     -21.228 -12.672  28.628  0.00  0.00     0.217 HD
ENDBRANCH  10  20
TORSDOF 3
ENDMDL
