MODEL 1
REMARK VINA RESULT:   -10.048      0.000      0.000
REMARK INTER + INTRA:          -4.920
REMARK INTER:                 -13.705
REMARK INTRA:                   8.785
REMARK UNBOUND:                 8.652
REMARK  9 active torsions:
REMARK  status: ('A' for Active; 'I' for Inactive)
REMARK    1  A    between atoms: O_3  and  C_17 
REMARK    2  A    between atoms: O_4  and  C_18 
REMARK    3  A    between atoms: O_5  and  C_19 
REMARK    4  A    between atoms: O_7  and  C_32 
REMARK    5  A    between atoms: O_9  and  C_36 
REMARK    6  A    between atoms: O_10  and  C_40 
REMARK    7  A    between atoms: C_11  and  C_13 
REMARK    8  A    between atoms: C_15  and  C_20 
REMARK    9  A    between atoms: C_22  and  C_29 
ROOT
ATOM      1  O   UNL d   1      26.234  28.617 -26.251  0.00  0.00    -0.308 OA
ATOM      2  O   UNL d   1      23.982  30.033 -27.780  0.00  0.00    -0.287 OA
ATOM      3  C   UNL d   1      25.615  27.080 -26.846  0.00  0.00     0.045 A 
ATOM      4  C   UNL d   1      25.541  28.077 -26.810  0.00  0.00     0.107 A 
ATOM      5  C   UNL d   1      24.808  28.542 -27.307  0.00  0.00     0.082 A 
ATOM      6  C   UNL d   1      24.957  26.549 -27.379  0.00  0.00     0.082 A 
ATOM      7  C   UNL d   1      24.150  28.010 -27.840  0.00  0.00     0.085 A 
ATOM      8  C   UNL d   1      24.224  27.014 -27.876  0.00  0.00     0.075 A 
ATOM      9  C   UNL d   1      26.163  29.655 -26.208  0.00  0.00     0.090 A 
ATOM     10  C   UNL d   1      24.719  29.579 -27.279  0.00  0.00     0.190 A 
ATOM     11  C   UNL d   1      25.400  30.140 -26.726  0.00  0.00     0.094 A 
ENDROOT
BRANCH   3  12
ATOM     12  C   UNL d   1      26.348  26.615 -26.349  0.00  0.00     0.014 A 
ATOM     13  C   UNL d   1      27.231  26.459 -26.791  0.00  0.00     0.029 A 
ATOM     14  C   UNL d   1      27.964  25.994 -26.294  0.00  0.00    -0.001 A 
ATOM     15  C   UNL d   1      27.813  25.685 -25.355  0.00  0.00     0.017 A 
ATOM     16  C   UNL d   1      26.930  25.841 -24.913  0.00  0.00     0.038 A 
ATOM     17  C   UNL d   1      26.197  26.306 -25.410  0.00  0.00     0.076 A 
BRANCH  14  18
ATOM     18  C   UNL d   1      28.847  25.837 -26.737  0.00  0.00     0.090 A 
ATOM     19  O   UNL d   1      28.929  25.153 -27.461  0.00  0.00    -0.309 OA
ATOM     20  C   UNL d   1      29.812  24.996 -27.903  0.00  0.00     0.095 A 
ATOM     21  C   UNL d   1      30.613  25.525 -27.621  0.00  0.00     0.081 A 
ATOM     22  C   UNL d   1      29.883  24.280 -28.656  0.00  0.00     0.075 A 
ATOM     23  C   UNL d   1      30.531  26.209 -26.896  0.00  0.00     0.190 A 
ATOM     24  C   UNL d   1      31.540  25.373 -28.072  0.00  0.00     0.085 A 
ATOM     25  O   UNL d   1      31.332  26.737 -26.614  0.00  0.00    -0.287 OA
ATOM     26  C   UNL d   1      29.648  26.366 -26.454  0.00  0.00     0.094 A 
ATOM     27  C   UNL d   1      31.633  24.661 -28.827  0.00  0.00     0.074 A 
ATOM     28  C   UNL d   1      30.799  24.111 -29.122  0.00  0.00     0.071 A 
BRANCH  24  29
ATOM     29  O   UNL d   1      32.334  25.907 -27.782  0.00  0.00    -0.360 OA
ATOM     30  H   UNL d   1      32.414  26.043 -27.182  0.00  0.00     0.217 HD
ENDBRANCH  24  29
BRANCH  28  31
ATOM     31  O   UNL d   1      30.878  23.426 -29.845  0.00  0.00    -0.361 OA
ATOM     32  H   UNL d   1      31.273  22.952 -29.782  0.00  0.00     0.217 HD
ENDBRANCH  28  31
ENDBRANCH  14  18
BRANCH  17  33
ATOM     33  O   UNL d   1      25.314  26.463 -24.968  0.00  0.00    -0.360 OA
ATOM     34  H   UNL d   1      24.840  26.079 -25.079  0.00  0.00     0.217 HD
ENDBRANCH  17  33
ENDBRANCH   3  12
BRANCH   6  35
ATOM     35  O   UNL d   1      25.031  25.552 -27.416  0.00  0.00    -0.360 OA
ATOM     36  H   UNL d   1      24.533  25.200 -27.304  0.00  0.00     0.217 HD
ENDBRANCH   6  35
BRANCH   9  37
ATOM     37  C   UNL d   1      26.824  30.183 -25.674  0.00  0.00    -0.002 A 
ATOM     38  C   UNL d   1      27.409  29.722 -25.006  0.00  0.00     0.017 A 
ATOM     39  C   UNL d   1      28.069  30.248 -24.472  0.00  0.00     0.037 A 
ATOM     40  C   UNL d   1      28.145  31.237 -24.605  0.00  0.00     0.065 A 
ATOM     41  C   UNL d   1      27.560  31.698 -25.272  0.00  0.00     0.037 A 
ATOM     42  C   UNL d   1      26.899  31.170 -25.807  0.00  0.00     0.017 A 
BRANCH  40  43
ATOM     43  O   UNL d   1      28.805  31.765 -24.070  0.00  0.00    -0.361 OA
ATOM     44  H   UNL d   1      29.215  31.472 -23.707  0.00  0.00     0.217 HD
ENDBRANCH  40  43
ENDBRANCH   9  37
BRANCH   7  45
ATOM     45  O   UNL d   1      23.418  28.476 -28.337  0.00  0.00    -0.360 OA
ATOM     46  H   UNL d   1      23.021  28.843 -28.033  0.00  0.00     0.217 HD
ENDBRANCH   7  45
TORSDOF 9
ENDMDL
MODEL 2
REMARK VINA RESULT:    -9.469      8.826     11.684
REMARK INTER + INTRA:          -4.139
REMARK INTER:                 -13.142
REMARK INTRA:                   9.002
REMARK UNBOUND:                 8.652
REMARK  9 active torsions:
REMARK  status: ('A' for Active; 'I' for Inactive)
REMARK    1  A    between atoms: O_3  and  C_17 
REMARK    2  A    between atoms: O_4  and  C_18 
REMARK    3  A    between atoms: O_5  and  C_19 
REMARK    4  A    between atoms: O_7  and  C_32 
REMARK    5  A    between atoms: O_9  and  C_36 
REMARK    6  A    between atoms: O_10  and  C_40 
REMARK    7  A    between atoms: C_11  and  C_13 
REMARK    8  A    between atoms: C_15  and  C_20 
REMARK    9  A    between atoms: C_22  and  C_29 
ROOT
ATOM      1  O   UNL d   1      21.497  33.945 -35.838  0.00  0.00    -0.308 OA
ATOM      2  O   UNL d   1      19.000  34.555 -37.514  0.00  0.00    -0.287 OA
ATOM      3  C   UNL d   1      21.294  32.241 -36.233  0.00  0.00     0.045 A 
ATOM      4  C   UNL d   1      20.973  33.184 -36.321  0.00  0.00     0.107 A 
ATOM      5  C   UNL d   1      20.160  33.387 -36.866  0.00  0.00     0.082 A 
ATOM      6  C   UNL d   1      20.801  31.501 -36.691  0.00  0.00     0.082 A 
ATOM      7  C   UNL d   1      19.667  32.647 -37.324  0.00  0.00     0.085 A 
ATOM      8  C   UNL d   1      19.988  31.704 -37.236  0.00  0.00     0.075 A 
ATOM      9  C   UNL d   1      21.169  34.929 -35.925  0.00  0.00     0.090 A 
ATOM     10  C   UNL d   1      19.814  34.364 -36.966  0.00  0.00     0.190 A 
ATOM     11  C   UNL d   1      20.321  35.141 -36.493  0.00  0.00     0.094 A 
ENDROOT
BRANCH   3  12
ATOM     12  C   UNL d   1      22.108  32.038 -35.688  0.00  0.00     0.014 A 
ATOM     13  C   UNL d   1      22.029  31.920 -34.698  0.00  0.00     0.029 A 
ATOM     14  C   UNL d   1      22.843  31.717 -34.153  0.00  0.00    -0.001 A 
ATOM     15  C   UNL d   1      23.734  31.633 -34.598  0.00  0.00     0.017 A 
ATOM     16  C   UNL d   1      23.813  31.751 -35.587  0.00  0.00     0.038 A 
ATOM     17  C   UNL d   1      22.999  31.954 -36.133  0.00  0.00     0.076 A 
BRANCH  14  18
ATOM     18  C   UNL d   1      22.764  31.599 -33.163  0.00  0.00     0.090 A 
ATOM     19  O   UNL d   1      21.937  31.197 -32.771  0.00  0.00    -0.309 OA
ATOM     20  C   UNL d   1      21.859  31.079 -31.782  0.00  0.00     0.095 A 
ATOM     21  C   UNL d   1      22.608  31.363 -31.183  0.00  0.00     0.081 A 
ATOM     22  C   UNL d   1      20.990  30.658 -31.388  0.00  0.00     0.075 A 
ATOM     23  C   UNL d   1      23.435  31.765 -31.575  0.00  0.00     0.190 A 
ATOM     24  C   UNL d   1      22.541  31.246 -30.150  0.00  0.00     0.085 A 
ATOM     25  O   UNL d   1      24.185  32.049 -30.977  0.00  0.00    -0.287 OA
ATOM     26  C   UNL d   1      23.514  31.883 -32.565  0.00  0.00     0.094 A 
ATOM     27  C   UNL d   1      21.682  30.827 -29.735  0.00  0.00     0.074 A 
ATOM     28  C   UNL d   1      20.901  30.532 -30.358  0.00  0.00     0.071 A 
BRANCH  24  29
ATOM     29  O   UNL d   1      23.296  31.533 -29.562  0.00  0.00    -0.360 OA
ATOM     30  H   UNL d   1      23.541  32.100 -29.625  0.00  0.00     0.217 HD
ENDBRANCH  24  29
BRANCH  28  31
ATOM     31  O   UNL d   1      20.072  30.129 -29.970  0.00  0.00    -0.361 OA
ATOM     32  H   UNL d   1      19.795  29.654 -30.257  0.00  0.00     0.217 HD
ENDBRANCH  28  31
ENDBRANCH  14  18
BRANCH  17  33
ATOM     33  O   UNL d   1      23.077  32.072 -37.123  0.00  0.00    -0.360 OA
ATOM     34  H   UNL d   1      22.736  31.723 -37.504  0.00  0.00     0.217 HD
ENDBRANCH  17  33
ENDBRANCH   3  12
BRANCH   6  35
ATOM     35  O   UNL d   1      21.122  30.558 -36.603  0.00  0.00    -0.360 OA
ATOM     36  H   UNL d   1      21.613  30.429 -36.246  0.00  0.00     0.217 HD
ENDBRANCH   6  35
BRANCH   9  37
ATOM     37  C   UNL d   1      21.665  35.667 -35.466  0.00  0.00    -0.002 A 
ATOM     38  C   UNL d   1      21.977  35.547 -34.524  0.00  0.00     0.017 A 
ATOM     39  C   UNL d   1      22.473  36.284 -34.064  0.00  0.00     0.037 A 
ATOM     40  C   UNL d   1      22.656  37.140 -34.547  0.00  0.00     0.065 A 
ATOM     41  C   UNL d   1      22.343  37.260 -35.489  0.00  0.00     0.037 A 
ATOM     42  C   UNL d   1      21.847  36.522 -35.948  0.00  0.00     0.017 A 
BRANCH  40  43
ATOM     43  O   UNL d   1      23.151  37.878 -34.088  0.00  0.00    -0.361 OA
ATOM     44  H   UNL d   1      22.842  38.295 -33.747  0.00  0.00     0.217 HD
ENDBRANCH  40  43
ENDBRANCH   9  37
BRANCH   7  45
ATOM     45  O   UNL d   1      18.854  32.849 -37.869  0.00  0.00    -0.360 OA
ATOM     46  H   UNL d   1      18.289  32.761 -37.628  0.00  0.00     0.217 HD
ENDBRANCH   7  45
TORSDOF 9
ENDMDL
MODEL 3
REMARK VINA RESULT:    -9.366      7.701     11.014
REMARK INTER + INTRA:          -4.000
REMARK INTER:                 -12.677
REMARK INTRA:                   8.677
REMARK UNBOUND:                 8.652
REMARK  9 active torsions:
REMARK  status: ('A' for Active; 'I' for Inactive)
REMARK    1  A    between atoms: O_3  and  C_17 
REMARK    2  A    between atoms: O_4  and  C_18 
REMARK    3  A    between atoms: O_5  and  C_19 
REMARK    4  A    between atoms: O_7  and  C_32 
REMARK    5  A    between atoms: O_9  and  C_36 
REMARK    6  A    between atoms: O_10  and  C_40 
REMARK    7  A    between atoms: C_11  and  C_13 
REMARK    8  A    between atoms: C_15  and  C_20 
REMARK    9  A    between atoms: C_22  and  C_29 
ROOT
ATOM      1  O   UNL d   1      21.699  33.221 -31.094  0.00  0.00    -0.308 OA
ATOM      2  O   UNL d   1      20.607  32.034 -28.482  0.00  0.00    -0.287 OA
ATOM      3  C   UNL d   1      22.576  31.718 -31.360  0.00  0.00     0.045 A 
ATOM      4  C   UNL d   1      21.959  32.259 -30.789  0.00  0.00     0.107 A 
ATOM      5  C   UNL d   1      21.601  31.876 -29.937  0.00  0.00     0.082 A 
ATOM      6  C   UNL d   1      22.834  30.793 -31.081  0.00  0.00     0.082 A 
ATOM      7  C   UNL d   1      21.860  30.951 -29.658  0.00  0.00     0.085 A 
ATOM      8  C   UNL d   1      22.477  30.410 -30.229  0.00  0.00     0.075 A 
ATOM      9  C   UNL d   1      21.057  33.791 -30.503  0.00  0.00     0.090 A 
ATOM     10  C   UNL d   1      20.959  32.428 -29.332  0.00  0.00     0.190 A 
ATOM     11  C   UNL d   1      20.684  33.391 -29.616  0.00  0.00     0.094 A 
ENDROOT
BRANCH   3  12
ATOM     12  C   UNL d   1      22.934  32.101 -32.212  0.00  0.00     0.014 A 
ATOM     13  C   UNL d   1      22.442  31.958 -33.071  0.00  0.00     0.029 A 
ATOM     14  C   UNL d   1      22.800  32.341 -33.922  0.00  0.00    -0.001 A 
ATOM     15  C   UNL d   1      23.649  32.868 -33.915  0.00  0.00     0.017 A 
ATOM     16  C   UNL d   1      24.141  33.011 -33.056  0.00  0.00     0.038 A 
ATOM     17  C   UNL d   1      23.784  32.628 -32.205  0.00  0.00     0.076 A 
BRANCH  14  18
ATOM     18  C   UNL d   1      22.308  32.197 -34.781  0.00  0.00     0.090 A 
ATOM     19  O   UNL d   1      21.533  32.784 -35.018  0.00  0.00    -0.309 OA
ATOM     20  C   UNL d   1      21.041  32.641 -35.876  0.00  0.00     0.095 A 
ATOM     21  C   UNL d   1      21.323  31.910 -36.498  0.00  0.00     0.081 A 
ATOM     22  C   UNL d   1      20.237  33.261 -36.110  0.00  0.00     0.075 A 
ATOM     23  C   UNL d   1      22.098  31.323 -36.261  0.00  0.00     0.190 A 
ATOM     24  C   UNL d   1      20.821  31.748 -37.396  0.00  0.00     0.085 A 
ATOM     25  O   UNL d   1      22.380  30.592 -36.883  0.00  0.00    -0.287 OA
ATOM     26  C   UNL d   1      22.590  31.467 -35.402  0.00  0.00     0.094 A 
ATOM     27  C   UNL d   1      20.013  32.356 -37.650  0.00  0.00     0.074 A 
ATOM     28  C   UNL d   1      19.719  33.117 -37.002  0.00  0.00     0.071 A 
BRANCH  24  29
ATOM     29  O   UNL d   1      21.111  31.015 -38.010  0.00  0.00    -0.360 OA
ATOM     30  H   UNL d   1      21.427  30.529 -37.786  0.00  0.00     0.217 HD
ENDBRANCH  24  29
BRANCH  28  31
ATOM     31  O   UNL d   1      18.946  33.706 -37.236  0.00  0.00    -0.361 OA
ATOM     32  H   UNL d   1      19.014  34.323 -37.233  0.00  0.00     0.217 HD
ENDBRANCH  28  31
ENDBRANCH  14  18
BRANCH  17  33
ATOM     33  O   UNL d   1      24.276  32.772 -31.346  0.00  0.00    -0.360 OA
ATOM     34  H   UNL d   1      24.625  33.278 -31.270  0.00  0.00     0.217 HD
ENDBRANCH  17  33
ENDBRANCH   3  12
BRANCH   6  35
ATOM     35  O   UNL d   1      23.451  30.252 -31.653  0.00  0.00    -0.360 OA
ATOM     36  H   UNL d   1      23.926  29.949 -31.395  0.00  0.00     0.217 HD
ENDBRANCH   6  35
BRANCH   9  37
ATOM     37  C   UNL d   1      20.801  34.715 -30.787  0.00  0.00    -0.002 A 
ATOM     38  C   UNL d   1      19.882  35.060 -30.594  0.00  0.00     0.017 A 
ATOM     39  C   UNL d   1      19.626  35.984 -30.877  0.00  0.00     0.037 A 
ATOM     40  C   UNL d   1      20.288  36.563 -31.353  0.00  0.00     0.065 A 
ATOM     41  C   UNL d   1      21.206  36.218 -31.546  0.00  0.00     0.037 A 
ATOM     42  C   UNL d   1      21.462  35.293 -31.262  0.00  0.00     0.017 A 
BRANCH  40  43
ATOM     43  O   UNL d   1      20.031  37.487 -31.636  0.00  0.00    -0.361 OA
ATOM     44  H   UNL d   1      20.340  37.768 -32.096  0.00  0.00     0.217 HD
ENDBRANCH  40  43
ENDBRANCH   9  37
BRANCH   7  45
ATOM     45  O   UNL d   1      21.502  30.568 -28.806  0.00  0.00    -0.360 OA
ATOM     46  H   UNL d   1      21.893  30.361 -28.371  0.00  0.00     0.217 HD
ENDBRANCH   7  45
TORSDOF 9
ENDMDL
MODEL 4
REMARK VINA RESULT:    -9.192      8.020     11.323
REMARK INTER + INTRA:          -3.765
REMARK INTER:                 -12.521
REMARK INTRA:                   8.755
REMARK UNBOUND:                 8.652
REMARK  9 active torsions:
REMARK  status: ('A' for Active; 'I' for Inactive)
REMARK    1  A    between atoms: O_3  and  C_17 
REMARK    2  A    between atoms: O_4  and  C_18 
REMARK    3  A    between atoms: O_5  and  C_19 
REMARK    4  A    between atoms: O_7  and  C_32 
REMARK    5  A    between atoms: O_9  and  C_36 
REMARK    6  A    between atoms: O_10  and  C_40 
REMARK    7  A    between atoms: C_11  and  C_13 
REMARK    8  A    between atoms: C_15  and  C_20 
REMARK    9  A    between atoms: C_22  and  C_29 
ROOT
ATOM      1  O   UNL d   1      21.522  33.000 -35.231  0.00  0.00    -0.308 OA
ATOM      2  O   UNL d   1      20.143  32.074 -37.812  0.00  0.00    -0.287 OA
ATOM      3  C   UNL d   1      22.534  31.561 -35.305  0.00  0.00     0.045 A 
ATOM      4  C   UNL d   1      21.802  32.115 -35.704  0.00  0.00     0.107 A 
ATOM      5  C   UNL d   1      21.351  31.816 -36.544  0.00  0.00     0.082 A 
ATOM      6  C   UNL d   1      22.814  30.709 -35.747  0.00  0.00     0.082 A 
ATOM      7  C   UNL d   1      21.631  30.964 -36.987  0.00  0.00     0.085 A 
ATOM      8  C   UNL d   1      22.362  30.411 -36.588  0.00  0.00     0.075 A 
ATOM      9  C   UNL d   1      20.761  33.582 -35.640  0.00  0.00     0.090 A 
ATOM     10  C   UNL d   1      20.588  32.382 -36.971  0.00  0.00     0.190 A 
ATOM     11  C   UNL d   1      20.290  33.270 -36.516  0.00  0.00     0.094 A 
ENDROOT
BRANCH   3  12
ATOM     12  C   UNL d   1      22.985  31.860 -34.464  0.00  0.00     0.014 A 
ATOM     13  C   UNL d   1      22.605  31.607 -33.575  0.00  0.00     0.029 A 
ATOM     14  C   UNL d   1      23.056  31.906 -32.734  0.00  0.00    -0.001 A 
ATOM     15  C   UNL d   1      23.889  32.458 -32.783  0.00  0.00     0.017 A 
ATOM     16  C   UNL d   1      24.269  32.711 -33.672  0.00  0.00     0.038 A 
ATOM     17  C   UNL d   1      23.818  32.412 -34.513  0.00  0.00     0.076 A 
BRANCH  14  18
ATOM     18  C   UNL d   1      22.675  31.652 -31.845  0.00  0.00     0.090 A 
ATOM     19  O   UNL d   1      21.922  32.182 -31.455  0.00  0.00    -0.309 OA
ATOM     20  C   UNL d   1      21.541  31.929 -30.565  0.00  0.00     0.095 A 
ATOM     21  C   UNL d   1      21.914  31.146 -30.067  0.00  0.00     0.081 A 
ATOM     22  C   UNL d   1      20.757  32.490 -30.171  0.00  0.00     0.075 A 
ATOM     23  C   UNL d   1      22.667  30.616 -30.457  0.00  0.00     0.190 A 
ATOM     24  C   UNL d   1      21.527  30.870 -29.139  0.00  0.00     0.085 A 
ATOM     25  O   UNL d   1      23.039  29.834 -29.958  0.00  0.00    -0.287 OA
ATOM     26  C   UNL d   1      23.048  30.870 -31.346  0.00  0.00     0.094 A 
ATOM     27  C   UNL d   1      20.743  31.417 -28.726  0.00  0.00     0.074 A 
ATOM     28  C   UNL d   1      20.355  32.232 -29.245  0.00  0.00     0.071 A 
BRANCH  24  29
ATOM     29  O   UNL d   1      21.907  30.086 -28.649  0.00  0.00    -0.360 OA
ATOM     30  H   UNL d   1      21.995  30.116 -28.036  0.00  0.00     0.217 HD
ENDBRANCH  24  29
BRANCH  28  31
ATOM     31  O   UNL d   1      19.602  32.764 -28.858  0.00  0.00    -0.361 OA
ATOM     32  H   UNL d   1      19.544  32.817 -28.243  0.00  0.00     0.217 HD
ENDBRANCH  28  31
ENDBRANCH  14  18
BRANCH  17  33
ATOM     33  O   UNL d   1      24.199  32.665 -35.402  0.00  0.00    -0.360 OA
ATOM     34  H   UNL d   1      24.476  33.215 -35.476  0.00  0.00     0.217 HD
ENDBRANCH  17  33
ENDBRANCH   3  12
BRANCH   6  35
ATOM     35  O   UNL d   1      23.545  30.156 -35.349  0.00  0.00    -0.360 OA
ATOM     36  H   UNL d   1      23.789  30.312 -34.801  0.00  0.00     0.217 HD
ENDBRANCH   6  35
BRANCH   9  37
ATOM     37  C   UNL d   1      20.484  34.433 -35.195  0.00  0.00    -0.002 A 
ATOM     38  C   UNL d   1      20.842  34.662 -34.289  0.00  0.00     0.017 A 
ATOM     39  C   UNL d   1      20.565  35.513 -33.843  0.00  0.00     0.037 A 
ATOM     40  C   UNL d   1      19.932  36.135 -34.303  0.00  0.00     0.065 A 
ATOM     41  C   UNL d   1      19.574  35.907 -35.208  0.00  0.00     0.037 A 
ATOM     42  C   UNL d   1      19.851  35.055 -35.654  0.00  0.00     0.017 A 
BRANCH  40  43
ATOM     43  O   UNL d   1      19.655  36.987 -33.857  0.00  0.00    -0.361 OA
ATOM     44  H   UNL d   1      19.081  37.045 -33.627  0.00  0.00     0.217 HD
ENDBRANCH  40  43
ENDBRANCH   9  37
BRANCH   7  45
ATOM     45  O   UNL d   1      21.179  30.665 -37.827  0.00  0.00    -0.360 OA
ATOM     46  H   UNL d   1      20.946  31.085 -38.220  0.00  0.00     0.217 HD
ENDBRANCH   7  45
TORSDOF 9
ENDMDL
MODEL 5
REMARK VINA RESULT:    -9.172      8.837     11.668
REMARK INTER + INTRA:          -3.738
REMARK INTER:                 -12.692
REMARK INTRA:                   8.954
REMARK UNBOUND:                 8.652
REMARK  9 active torsions:
REMARK  status: ('A' for Active; 'I' for Inactive)
REMARK    1  A    between atoms: O_3  and  C_17 
REMARK    2  A    between atoms: O_4  and  C_18 
REMARK    3  A    between atoms: O_5  and  C_19 
REMARK    4  A    between atoms: O_7  and  C_32 
REMARK    5  A    between atoms: O_9  and  C_36 
REMARK    6  A    between atoms: O_10  and  C_40 
REMARK    7  A    between atoms: C_11  and  C_13 
REMARK    8  A    between atoms: C_15  and  C_20 
REMARK    9  A    between atoms: C_22  and  C_29 
ROOT
ATOM      1  O   UNL d   1      21.510  33.985 -35.867  0.00  0.00    -0.308 OA
ATOM      2  O   UNL d   1      18.926  34.525 -37.432  0.00  0.00    -0.287 OA
ATOM      3  C   UNL d   1      21.306  32.270 -36.204  0.00  0.00     0.045 A 
ATOM      4  C   UNL d   1      20.971  33.207 -36.301  0.00  0.00     0.107 A 
ATOM      5  C   UNL d   1      20.130  33.386 -36.811  0.00  0.00     0.082 A 
ATOM      6  C   UNL d   1      20.800  31.512 -36.615  0.00  0.00     0.082 A 
ATOM      7  C   UNL d   1      19.623  32.629 -37.222  0.00  0.00     0.085 A 
ATOM      8  C   UNL d   1      19.958  31.692 -37.125  0.00  0.00     0.075 A 
ATOM      9  C   UNL d   1      21.168  34.964 -35.964  0.00  0.00     0.090 A 
ATOM     10  C   UNL d   1      19.769  34.357 -36.921  0.00  0.00     0.190 A 
ATOM     11  C   UNL d   1      20.291  35.151 -36.495  0.00  0.00     0.094 A 
ENDROOT
BRANCH   3  12
ATOM     12  C   UNL d   1      22.148  32.090 -35.694  0.00  0.00     0.014 A 
ATOM     13  C   UNL d   1      22.123  32.017 -34.697  0.00  0.00     0.029 A 
ATOM     14  C   UNL d   1      22.965  31.838 -34.188  0.00  0.00    -0.001 A 
ATOM     15  C   UNL d   1      23.831  31.731 -34.676  0.00  0.00     0.017 A 
ATOM     16  C   UNL d   1      23.856  31.803 -35.673  0.00  0.00     0.038 A 
ATOM     17  C   UNL d   1      23.014  31.983 -36.182  0.00  0.00     0.076 A 
BRANCH  14  18
ATOM     18  C   UNL d   1      22.940  31.765 -33.191  0.00  0.00     0.090 A 
ATOM     19  O   UNL d   1      23.609  32.261 -32.637  0.00  0.00    -0.309 OA
ATOM     20  C   UNL d   1      23.584  32.188 -31.640  0.00  0.00     0.095 A 
ATOM     21  C   UNL d   1      22.891  31.620 -31.197  0.00  0.00     0.081 A 
ATOM     22  C   UNL d   1      24.288  32.710 -31.076  0.00  0.00     0.075 A 
ATOM     23  C   UNL d   1      22.222  31.124 -31.751  0.00  0.00     0.190 A 
ATOM     24  C   UNL d   1      22.852  31.534 -30.160  0.00  0.00     0.085 A 
ATOM     25  O   UNL d   1      21.528  30.556 -31.309  0.00  0.00    -0.287 OA
ATOM     26  C   UNL d   1      22.247  31.197 -32.748  0.00  0.00     0.094 A 
ATOM     27  C   UNL d   1      23.546  32.048 -29.575  0.00  0.00     0.074 A 
ATOM     28  C   UNL d   1      24.268  32.640 -30.036  0.00  0.00     0.071 A 
BRANCH  24  29
ATOM     29  O   UNL d   1      22.155  30.963 -29.727  0.00  0.00    -0.360 OA
ATOM     30  H   UNL d   1      21.565  31.155 -29.708  0.00  0.00     0.217 HD
ENDBRANCH  24  29
BRANCH  28  31
ATOM     31  O   UNL d   1      24.939  33.137 -29.486  0.00  0.00    -0.361 OA
ATOM     32  H   UNL d   1      24.773  33.376 -28.938  0.00  0.00     0.217 HD
ENDBRANCH  28  31
ENDBRANCH  14  18
BRANCH  17  33
ATOM     33  O   UNL d   1      23.039  32.056 -37.179  0.00  0.00    -0.360 OA
ATOM     34  H   UNL d   1      23.512  31.810 -37.496  0.00  0.00     0.217 HD
ENDBRANCH  17  33
ENDBRANCH   3  12
BRANCH   6  35
ATOM     35  O   UNL d   1      21.135  30.575 -36.518  0.00  0.00    -0.360 OA
ATOM     36  H   UNL d   1      21.265  30.238 -37.022  0.00  0.00     0.217 HD
ENDBRANCH   6  35
BRANCH   9  37
ATOM     37  C   UNL d   1      21.677  35.719 -35.551  0.00  0.00    -0.002 A 
ATOM     38  C   UNL d   1      22.043  35.626 -34.625  0.00  0.00     0.017 A 
ATOM     39  C   UNL d   1      22.553  36.380 -34.211  0.00  0.00     0.037 A 
ATOM     40  C   UNL d   1      22.697  37.227 -34.723  0.00  0.00     0.065 A 
ATOM     41  C   UNL d   1      22.331  37.320 -35.650  0.00  0.00     0.037 A 
ATOM     42  C   UNL d   1      21.821  36.565 -36.063  0.00  0.00     0.017 A 
BRANCH  40  43
ATOM     43  O   UNL d   1      23.207  37.982 -34.310  0.00  0.00    -0.361 OA
ATOM     44  H   UNL d   1      23.503  38.390 -34.671  0.00  0.00     0.217 HD
ENDBRANCH  40  43
ENDBRANCH   9  37
BRANCH   7  45
ATOM     45  O   UNL d   1      18.782  32.809 -37.732  0.00  0.00    -0.360 OA
ATOM     46  H   UNL d   1      18.705  33.351 -38.023  0.00  0.00     0.217 HD
ENDBRANCH   7  45
TORSDOF 9
ENDMDL
