MODEL 1
REMARK VINA RESULT:    -9.731      0.000      0.000
REMARK INTER + INTRA:          -1.975
REMARK INTER:                 -12.793
REMARK INTRA:                  10.818
REMARK UNBOUND:                10.601
REMARK  5 active torsions:
REMARK  status: ('A' for Active; 'I' for Inactive)
REMARK    1  A    between atoms: C_6  and  C_13 
REMARK    2  A    between atoms: C_13  and  C_19 
REMARK    3  A    between atoms: C_19  and  C_24 
REMARK    4  A    between atoms: C_24  and  C_25 
REMARK    5  A    between atoms: C_25  and  C_26 
ROOT
ATOM      1  O   UNL d   1      35.029  41.697   5.285  0.00  0.00    -0.293 OA
ATOM      2  C   UNL d   1      33.239  35.892   6.509  0.00  0.00    -0.036 A 
ATOM      3  C   UNL d   1      33.274  36.563   7.250  0.00  0.00    -0.002 A 
ATOM      4  C   UNL d   1      33.562  37.502   7.060  0.00  0.00    -0.004 A 
ATOM      5  C   UNL d   1      33.814  37.770   6.130  0.00  0.00     0.002 A 
ATOM      6  C   UNL d   1      32.933  35.029   6.895  0.00  0.00    -0.002 A 
ATOM      7  C   UNL d   1      33.491  36.160   5.579  0.00  0.00     0.010 A 
ATOM      8  C   UNL d   1      32.990  36.109   8.087  0.00  0.00     0.006 A 
ATOM      9  C   UNL d   1      34.116  38.744   5.918  0.00  0.00    -0.016 A 
ATOM     10  C   UNL d   1      33.779  37.099   5.390  0.00  0.00     0.007 A 
ATOM     11  C   UNL d   1      32.779  35.162   7.868  0.00  0.00     0.006 A 
ATOM     12  C   UNL d   1      33.594  38.190   7.842  0.00  0.00     0.010 A 
ATOM     13  C   UNL d   1      33.203  35.221   5.768  0.00  0.00     0.016 C 
ATOM     14  C   UNL d   1      34.156  39.449   6.684  0.00  0.00    -0.068 A 
ATOM     15  C   UNL d   1      33.893  39.170   7.653  0.00  0.00     0.035 A 
ATOM     16  C   UNL d   1      34.385  39.011   4.901  0.00  0.00     0.022 A 
ATOM     17  C   UNL d   1      34.078  38.067   5.183  0.00  0.00     0.020 C 
ATOM     18  C   UNL d   1      34.700  40.026   4.680  0.00  0.00     0.084 A 
ATOM     19  C   UNL d   1      34.467  40.469   6.488  0.00  0.00     0.053 A 
ATOM     20  C   UNL d   1      34.741  40.759   5.478  0.00  0.00     0.149 A 
ENDROOT
BRANCH   6  21
ATOM     21  C   UNL d   1      32.802  34.174   6.392  0.00  0.00    -0.014 C 
ATOM     22  C   UNL d   1      32.039  34.083   5.752  0.00  0.00     0.010 C 
BRANCH  21  23
ATOM     23  C   UNL d   1      33.435  33.412   6.528  0.00  0.00     0.005 C 
BRANCH  23  24
ATOM     24  C   UNL d   1      33.118  32.471   6.401  0.00  0.00     0.005 C 
BRANCH  24  25
ATOM     25  C   UNL d   1      33.591  31.719   6.860  0.00  0.00    -0.015 C 
ATOM     26  C   UNL d   1      34.434  31.894   7.367  0.00  0.00     0.010 C 
BRANCH  25  27
ATOM     27  C   UNL d   1      33.219  30.793   6.812  0.00  0.00    -0.019 C 
ATOM     28  C   UNL d   1      32.264  30.651   6.549  0.00  0.00     0.010 C 
ATOM     29  C   UNL d   1      33.800  30.007   7.027  0.00  0.00     0.010 C 
ENDBRANCH  25  27
ENDBRANCH  24  25
ENDBRANCH  23  24
ENDBRANCH  21  23
ENDBRANCH   6  21
TORSDOF 5
ENDMDL
MODEL 2
REMARK VINA RESULT:    -9.650      3.173      5.087
REMARK INTER + INTRA:          -1.870
REMARK INTER:                 -12.375
REMARK INTRA:                  10.505
REMARK UNBOUND:                10.601
REMARK  5 active torsions:
REMARK  status: ('A' for Active; 'I' for Inactive)
REMARK    1  A    between atoms: C_6  and  C_13 
REMARK    2  A    between atoms: C_13  and  C_19 
REMARK    3  A    between atoms: C_19  and  C_24 
REMARK    4  A    between atoms: C_24  and  C_25 
REMARK    5  A    between atoms: C_25  and  C_26 
ROOT
ATOM      1  O   UNL d   1      32.664  44.945   2.334  0.00  0.00    -0.293 OA
ATOM      2  C   UNL d   1      33.660  39.761   5.580  0.00  0.00    -0.036 A 
ATOM      3  C   UNL d   1      32.943  39.775   4.882  0.00  0.00    -0.002 A 
ATOM      4  C   UNL d   1      32.776  40.608   4.354  0.00  0.00    -0.004 A 
ATOM      5  C   UNL d   1      33.326  41.426   4.524  0.00  0.00     0.002 A 
ATOM      6  C   UNL d   1      33.668  38.855   5.987  0.00  0.00    -0.002 A 
ATOM      7  C   UNL d   1      34.209  40.579   5.749  0.00  0.00     0.010 A 
ATOM      8  C   UNL d   1      32.516  38.878   4.865  0.00  0.00     0.006 A 
ATOM      9  C   UNL d   1      33.164  42.301   3.982  0.00  0.00    -0.016 A 
ATOM     10  C   UNL d   1      34.042  41.412   5.221  0.00  0.00     0.007 A 
ATOM     11  C   UNL d   1      32.964  38.310   5.547  0.00  0.00     0.006 A 
ATOM     12  C   UNL d   1      32.027  40.608   3.630  0.00  0.00     0.010 A 
ATOM     13  C   UNL d   1      34.376  39.746   6.277  0.00  0.00     0.016 C 
ATOM     14  C   UNL d   1      32.419  42.324   3.253  0.00  0.00    -0.068 A 
ATOM     15  C   UNL d   1      31.847  41.472   3.076  0.00  0.00     0.035 A 
ATOM     16  C   UNL d   1      33.772  43.176   4.184  0.00  0.00     0.022 A 
ATOM     17  C   UNL d   1      33.878  42.279   4.681  0.00  0.00     0.020 C 
ATOM     18  C   UNL d   1      33.603  44.087   3.619  0.00  0.00     0.084 A 
ATOM     19  C   UNL d   1      32.232  43.223   2.676  0.00  0.00     0.053 A 
ATOM     20  C   UNL d   1      32.828  44.111   2.861  0.00  0.00     0.149 A 
ENDROOT
BRANCH   6  21
ATOM     21  C   UNL d   1      34.281  38.544   6.715  0.00  0.00    -0.014 C 
ATOM     22  C   UNL d   1      35.171  38.151   6.485  0.00  0.00     0.010 C 
BRANCH  21  23
ATOM     23  C   UNL d   1      34.003  38.628   7.672  0.00  0.00     0.005 C 
BRANCH  23  24
ATOM     24  C   UNL d   1      33.980  37.818   8.259  0.00  0.00     0.005 C 
BRANCH  24  25
ATOM     25  C   UNL d   1      33.496  37.848   9.133  0.00  0.00    -0.015 C 
ATOM     26  C   UNL d   1      33.459  38.700   9.655  0.00  0.00     0.010 C 
BRANCH  25  27
ATOM     27  C   UNL d   1      33.050  37.026   9.485  0.00  0.00    -0.019 C 
ATOM     28  C   UNL d   1      32.440  37.087  10.275  0.00  0.00     0.010 C 
ATOM     29  C   UNL d   1      33.213  36.141   9.047  0.00  0.00     0.010 C 
ENDBRANCH  25  27
ENDBRANCH  24  25
ENDBRANCH  23  24
ENDBRANCH  21  23
ENDBRANCH   6  21
TORSDOF 5
ENDMDL
MODEL 3
REMARK VINA RESULT:    -9.536      1.448      2.680
REMARK INTER + INTRA:          -1.723
REMARK INTER:                 -12.246
REMARK INTRA:                  10.523
REMARK UNBOUND:                10.601
REMARK  5 active torsions:
REMARK  status: ('A' for Active; 'I' for Inactive)
REMARK    1  A    between atoms: C_6  and  C_13 
REMARK    2  A    between atoms: C_13  and  C_19 
REMARK    3  A    between atoms: C_19  and  C_24 
REMARK    4  A    between atoms: C_24  and  C_25 
REMARK    5  A    between atoms: C_25  and  C_26 
ROOT
ATOM      1  O   UNL d   1      33.411  43.694   3.606  0.00  0.00    -0.293 OA
ATOM      2  C   UNL d   1      33.435  38.122   6.319  0.00  0.00    -0.036 A 
ATOM      3  C   UNL d   1      34.228  38.723   6.420  0.00  0.00    -0.002 A 
ATOM      4  C   UNL d   1      34.232  39.623   5.986  0.00  0.00    -0.004 A 
ATOM      5  C   UNL d   1      33.443  39.923   5.450  0.00  0.00     0.002 A 
ATOM      6  C   UNL d   1      33.623  37.284   6.819  0.00  0.00    -0.002 A 
ATOM      7  C   UNL d   1      32.646  38.422   5.784  0.00  0.00     0.010 A 
ATOM      8  C   UNL d   1      34.899  38.250   6.981  0.00  0.00     0.006 A 
ATOM      9  C   UNL d   1      33.432  40.859   4.991  0.00  0.00    -0.016 A 
ATOM     10  C   UNL d   1      32.650  39.323   5.349  0.00  0.00     0.007 A 
ATOM     11  C   UNL d   1      34.526  37.362   7.227  0.00  0.00     0.006 A 
ATOM     12  C   UNL d   1      35.066  40.238   6.100  0.00  0.00     0.010 A 
ATOM     13  C   UNL d   1      32.642  37.522   6.218  0.00  0.00     0.016 C 
ATOM     14  C   UNL d   1      34.255  41.490   5.092  0.00  0.00    -0.068 A 
ATOM     15  C   UNL d   1      35.077  41.178   5.650  0.00  0.00     0.035 A 
ATOM     16  C   UNL d   1      32.565  41.162   4.415  0.00  0.00     0.022 A 
ATOM     17  C   UNL d   1      32.643  40.252   4.895  0.00  0.00     0.020 C 
ATOM     18  C   UNL d   1      32.553  42.137   3.937  0.00  0.00     0.084 A 
ATOM     19  C   UNL d   1      34.267  42.468   4.624  0.00  0.00     0.053 A 
ATOM     20  C   UNL d   1      33.410  42.794   4.042  0.00  0.00     0.149 A 
ENDROOT
BRANCH   6  21
ATOM     21  C   UNL d   1      33.010  36.497   6.897  0.00  0.00    -0.014 C 
ATOM     22  C   UNL d   1      32.309  36.479   7.610  0.00  0.00     0.010 C 
BRANCH  21  23
ATOM     23  C   UNL d   1      33.098  35.729   6.262  0.00  0.00     0.005 C 
BRANCH  23  24
ATOM     24  C   UNL d   1      33.032  34.791   6.601  0.00  0.00     0.005 C 
BRANCH  24  25
ATOM     25  C   UNL d   1      33.024  34.026   5.956  0.00  0.00    -0.015 C 
ATOM     26  C   UNL d   1      32.839  34.192   4.988  0.00  0.00     0.010 C 
BRANCH  25  27
ATOM     27  C   UNL d   1      33.202  33.098   6.281  0.00  0.00    -0.019 C 
ATOM     28  C   UNL d   1      32.671  32.332   5.917  0.00  0.00     0.010 C 
ATOM     29  C   UNL d   1      33.910  32.934   6.969  0.00  0.00     0.010 C 
ENDBRANCH  25  27
ENDBRANCH  24  25
ENDBRANCH  23  24
ENDBRANCH  21  23
ENDBRANCH   6  21
TORSDOF 5
ENDMDL
MODEL 4
REMARK VINA RESULT:    -9.455     39.277     41.069
REMARK INTER + INTRA:          -1.618
REMARK INTER:                 -12.021
REMARK INTRA:                  10.403
REMARK UNBOUND:                10.601
REMARK  5 active torsions:
REMARK  status: ('A' for Active; 'I' for Inactive)
REMARK    1  A    between atoms: C_6  and  C_13 
REMARK    2  A    between atoms: C_13  and  C_19 
REMARK    3  A    between atoms: C_19  and  C_24 
REMARK    4  A    between atoms: C_24  and  C_25 
REMARK    5  A    between atoms: C_25  and  C_26 
ROOT
ATOM      1  O   UNL d   1      17.927  42.430  40.838  0.00  0.00    -0.293 OA
ATOM      2  C   UNL d   1      11.867  43.709  40.635  0.00  0.00    -0.036 A 
ATOM      3  C   UNL d   1      12.169  42.798  40.917  0.00  0.00    -0.002 A 
ATOM      4  C   UNL d   1      13.145  42.584  40.952  0.00  0.00    -0.004 A 
ATOM      5  C   UNL d   1      13.819  43.280  40.706  0.00  0.00     0.002 A 
ATOM      6  C   UNL d   1      10.874  43.723  40.664  0.00  0.00    -0.002 A 
ATOM      7  C   UNL d   1      12.541  44.405  40.388  0.00  0.00     0.010 A 
ATOM      8  C   UNL d   1      11.360  42.257  41.118  0.00  0.00     0.006 A 
ATOM      9  C   UNL d   1      14.839  43.072  40.738  0.00  0.00    -0.016 A 
ATOM     10  C   UNL d   1      13.517  44.191  40.424  0.00  0.00     0.007 A 
ATOM     11  C   UNL d   1      10.560  42.828  40.962  0.00  0.00     0.006 A 
ATOM     12  C   UNL d   1      13.445  41.631  41.248  0.00  0.00     0.010 A 
ATOM     13  C   UNL d   1      11.565  44.620  40.353  0.00  0.00     0.016 C 
ATOM     14  C   UNL d   1      15.162  42.125  41.031  0.00  0.00    -0.068 A 
ATOM     15  C   UNL d   1      14.460  41.400  41.287  0.00  0.00     0.035 A 
ATOM     16  C   UNL d   1      15.552  43.843  40.466  0.00  0.00     0.022 A 
ATOM     17  C   UNL d   1      14.530  43.980  40.457  0.00  0.00     0.020 C 
ATOM     18  C   UNL d   1      16.615  43.627  40.499  0.00  0.00     0.084 A 
ATOM     19  C   UNL d   1      16.219  41.885  41.072  0.00  0.00     0.053 A 
ATOM     20  C   UNL d   1      16.950  42.641  40.804  0.00  0.00     0.149 A 
ENDROOT
BRANCH   6  21
ATOM     21  C   UNL d   1      10.290  44.502  40.434  0.00  0.00    -0.014 C 
ATOM     22  C   UNL d   1      10.200  45.264  41.075  0.00  0.00     0.010 C 
BRANCH  21  23
ATOM     23  C   UNL d   1       9.798  44.518  39.564  0.00  0.00     0.005 C 
BRANCH  23  24
ATOM     24  C   UNL d   1       8.960  45.057  39.474  0.00  0.00     0.005 C 
BRANCH  24  25
ATOM     25  C   UNL d   1       8.385  44.955  38.661  0.00  0.00    -0.015 C 
ATOM     26  C   UNL d   1       8.556  44.207  38.020  0.00  0.00     0.010 C 
BRANCH  25  27
ATOM     27  C   UNL d   1       7.642  45.601  38.491  0.00  0.00    -0.019 C 
ATOM     28  C   UNL d   1       7.694  46.228  37.714  0.00  0.00     0.010 C 
ATOM     29  C   UNL d   1       6.847  45.621  39.099  0.00  0.00     0.010 C 
ENDBRANCH  25  27
ENDBRANCH  24  25
ENDBRANCH  23  24
ENDBRANCH  21  23
ENDBRANCH   6  21
TORSDOF 5
ENDMDL
MODEL 5
REMARK VINA RESULT:    -9.366     33.592     35.403
REMARK INTER + INTRA:          -1.503
REMARK INTER:                 -11.908
REMARK INTRA:                  10.405
REMARK UNBOUND:                10.601
REMARK  5 active torsions:
REMARK  status: ('A' for Active; 'I' for Inactive)
REMARK    1  A    between atoms: C_6  and  C_13 
REMARK    2  A    between atoms: C_13  and  C_19 
REMARK    3  A    between atoms: C_19  and  C_24 
REMARK    4  A    between atoms: C_24  and  C_25 
REMARK    5  A    between atoms: C_25  and  C_26 
ROOT
ATOM      1  O   UNL d   1      16.422  44.772  42.153  0.00  0.00    -0.293 OA
ATOM      2  C   UNL d   1      19.120  45.359  36.605  0.00  0.00    -0.036 A 
ATOM      3  C   UNL d   1      18.926  46.177  37.147  0.00  0.00    -0.002 A 
ATOM      4  C   UNL d   1      18.491  46.091  38.043  0.00  0.00    -0.004 A 
ATOM      5  C   UNL d   1      18.250  45.187  38.397  0.00  0.00     0.002 A 
ATOM      6  C   UNL d   1      19.549  45.652  35.757  0.00  0.00    -0.002 A 
ATOM      7  C   UNL d   1      18.879  44.456  36.959  0.00  0.00     0.010 A 
ATOM      8  C   UNL d   1      19.236  46.967  36.630  0.00  0.00     0.006 A 
ATOM      9  C   UNL d   1      17.796  45.081  39.329  0.00  0.00    -0.016 A 
ATOM     10  C   UNL d   1      18.444  44.369  37.855  0.00  0.00     0.007 A 
ATOM     11  C   UNL d   1      19.620  46.643  35.772  0.00  0.00     0.006 A 
ATOM     12  C   UNL d   1      18.294  46.951  38.597  0.00  0.00     0.010 A 
ATOM     13  C   UNL d   1      19.315  44.542  36.063  0.00  0.00     0.016 C 
ATOM     14  C   UNL d   1      17.590  45.928  39.900  0.00  0.00    -0.068 A 
ATOM     15  C   UNL d   1      17.841  46.870  39.531  0.00  0.00     0.035 A 
ATOM     16  C   UNL d   1      17.544  44.090  39.692  0.00  0.00     0.022 A 
ATOM     17  C   UNL d   1      17.993  44.268  38.781  0.00  0.00     0.020 C 
ATOM     18  C   UNL d   1      17.071  43.980  40.663  0.00  0.00     0.084 A 
ATOM     19  C   UNL d   1      17.118  45.843  40.873  0.00  0.00     0.053 A 
ATOM     20  C   UNL d   1      16.857  44.862  41.257  0.00  0.00     0.149 A 
ENDROOT
BRANCH   6  21
ATOM     21  C   UNL d   1      19.855  45.052  35.017  0.00  0.00    -0.014 C 
ATOM     22  C   UNL d   1      20.759  44.627  35.060  0.00  0.00     0.010 C 
BRANCH  21  23
ATOM     23  C   UNL d   1      19.256  44.878  34.235  0.00  0.00     0.005 C 
BRANCH  23  24
ATOM     24  C   UNL d   1      19.652  44.684  33.337  0.00  0.00     0.005 C 
BRANCH  24  25
ATOM     25  C   UNL d   1      19.054  44.483  32.560  0.00  0.00    -0.015 C 
ATOM     26  C   UNL d   1      18.094  44.761  32.584  0.00  0.00     0.010 C 
BRANCH  25  27
ATOM     27  C   UNL d   1      19.417  44.003  31.762  0.00  0.00    -0.019 C 
ATOM     28  C   UNL d   1      19.537  44.491  30.898  0.00  0.00     0.010 C 
ATOM     29  C   UNL d   1      19.662  43.035  31.828  0.00  0.00     0.010 C 
ENDBRANCH  25  27
ENDBRANCH  24  25
ENDBRANCH  23  24
ENDBRANCH  21  23
ENDBRANCH   6  21
TORSDOF 5
ENDMDL
