MODEL 1
REMARK VINA RESULT:    -8.568      0.000      0.000
REMARK INTER + INTRA:          -0.609
REMARK INTER:                 -11.072
REMARK INTRA:                  10.463
REMARK UNBOUND:                10.462
REMARK  5 active torsions:
REMARK  status: ('A' for Active; 'I' for Inactive)
REMARK    1  A    between atoms: C_6  and  C_13 
REMARK    2  A    between atoms: C_13  and  C_19 
REMARK    3  A    between atoms: C_19  and  C_24 
REMARK    4  A    between atoms: C_24  and  C_25 
REMARK    5  A    between atoms: C_25  and  C_26 
ROOT
ATOM      1  O   UNL d   1      -2.263 -34.148 -15.593  0.00  0.00    -0.293 OA
ATOM      2  C   UNL d   1       2.181 -31.096 -12.538  0.00  0.00    -0.036 A 
ATOM      3  C   UNL d   1       2.366 -32.014 -12.887  0.00  0.00    -0.002 A 
ATOM      4  C   UNL d   1       1.654 -32.513 -13.381  0.00  0.00    -0.004 A 
ATOM      5  C   UNL d   1       0.758 -32.094 -13.526  0.00  0.00     0.002 A 
ATOM      6  C   UNL d   1       3.004 -30.773 -12.083  0.00  0.00    -0.002 A 
ATOM      7  C   UNL d   1       1.285 -30.676 -12.683  0.00  0.00     0.010 A 
ATOM      8  C   UNL d   1       3.300 -32.251 -12.645  0.00  0.00     0.006 A 
ATOM      9  C   UNL d   1       0.006 -32.601 -14.039  0.00  0.00    -0.016 A 
ATOM     10  C   UNL d   1       0.573 -31.175 -13.177  0.00  0.00     0.007 A 
ATOM     11  C   UNL d   1       3.694 -31.485 -12.148  0.00  0.00     0.006 A 
ATOM     12  C   UNL d   1       1.860 -33.470 -13.739  0.00  0.00     0.010 A 
ATOM     13  C   UNL d   1       1.997 -30.177 -12.189  0.00  0.00     0.016 C 
ATOM     14  C   UNL d   1       0.191 -33.559 -14.406  0.00  0.00    -0.068 A 
ATOM     15  C   UNL d   1       1.124 -33.996 -14.255  0.00  0.00     0.035 A 
ATOM     16  C   UNL d   1      -0.958 -32.126 -14.184  0.00  0.00     0.022 A 
ATOM     17  C   UNL d   1      -0.171 -31.682 -13.687  0.00  0.00     0.020 C 
ATOM     18  C   UNL d   1      -1.741 -32.654 -14.718  0.00  0.00     0.084 A 
ATOM     19  C   UNL d   1      -0.576 -34.107 -14.942  0.00  0.00     0.053 A 
ATOM     20  C   UNL d   1      -1.549 -33.652 -15.100  0.00  0.00     0.149 A 
ENDROOT
BRANCH   6  21
ATOM     21  C   UNL d   1       3.117 -29.885 -11.636  0.00  0.00    -0.014 C 
ATOM     22  C   UNL d   1       3.251 -29.062 -12.188  0.00  0.00     0.010 C 
BRANCH  21  23
ATOM     23  C   UNL d   1       3.097 -29.821 -10.638  0.00  0.00     0.005 C 
BRANCH  23  24
ATOM     24  C   UNL d   1       3.556 -29.061 -10.177  0.00  0.00     0.005 C 
BRANCH  24  25
ATOM     25  C   UNL d   1       3.727 -29.105  -9.192  0.00  0.00    -0.015 C 
ATOM     26  C   UNL d   1       3.747 -29.990  -8.728  0.00  0.00     0.010 C 
BRANCH  25  27
ATOM     27  C   UNL d   1       3.877 -28.264  -8.674  0.00  0.00    -0.019 C 
ATOM     28  C   UNL d   1       3.173 -27.932  -8.046  0.00  0.00     0.010 C 
ATOM     29  C   UNL d   1       4.731 -27.754  -8.783  0.00  0.00     0.010 C 
ENDBRANCH  25  27
ENDBRANCH  24  25
ENDBRANCH  23  24
ENDBRANCH  21  23
ENDBRANCH   6  21
TORSDOF 5
ENDMDL
MODEL 2
REMARK VINA RESULT:    -8.540     30.388     31.794
REMARK INTER + INTRA:          -0.573
REMARK INTER:                 -11.075
REMARK INTRA:                  10.501
REMARK UNBOUND:                10.462
REMARK  5 active torsions:
REMARK  status: ('A' for Active; 'I' for Inactive)
REMARK    1  A    between atoms: C_6  and  C_13 
REMARK    2  A    between atoms: C_13  and  C_19 
REMARK    3  A    between atoms: C_19  and  C_24 
REMARK    4  A    between atoms: C_24  and  C_25 
REMARK    5  A    between atoms: C_25  and  C_26 
ROOT
ATOM      1  O   UNL d   1     -27.192 -21.614  -6.493  0.00  0.00    -0.293 OA
ATOM      2  C   UNL d   1     -25.243 -17.620  -2.175  0.00  0.00    -0.036 A 
ATOM      3  C   UNL d   1     -26.223 -17.726  -2.340  0.00  0.00    -0.002 A 
ATOM      4  C   UNL d   1     -26.546 -18.368  -3.036  0.00  0.00    -0.004 A 
ATOM      5  C   UNL d   1     -25.888 -18.904  -3.565  0.00  0.00     0.002 A 
ATOM      6  C   UNL d   1     -25.128 -16.944  -1.455  0.00  0.00    -0.002 A 
ATOM      7  C   UNL d   1     -24.585 -18.156  -2.704  0.00  0.00     0.010 A 
ATOM      8  C   UNL d   1     -26.705 -17.115  -1.722  0.00  0.00     0.006 A 
ATOM      9  C   UNL d   1     -26.209 -19.577  -4.292  0.00  0.00    -0.016 A 
ATOM     10  C   UNL d   1     -24.908 -18.798  -3.399  0.00  0.00     0.007 A 
ATOM     11  C   UNL d   1     -26.029 -16.632  -1.176  0.00  0.00     0.006 A 
ATOM     12  C   UNL d   1     -27.570 -18.468  -3.197  0.00  0.00     0.010 A 
ATOM     13  C   UNL d   1     -24.262 -17.513  -2.009  0.00  0.00     0.016 C 
ATOM     14  C   UNL d   1     -27.229 -19.694  -4.471  0.00  0.00    -0.068 A 
ATOM     15  C   UNL d   1     -27.914 -19.135  -3.920  0.00  0.00     0.035 A 
ATOM     16  C   UNL d   1     -25.477 -20.148  -4.854  0.00  0.00     0.022 A 
ATOM     17  C   UNL d   1     -25.230 -19.466  -4.121  0.00  0.00     0.020 C 
ATOM     18  C   UNL d   1     -25.811 -20.849  -5.612  0.00  0.00     0.084 A 
ATOM     19  C   UNL d   1     -27.587 -20.388  -5.223  0.00  0.00     0.053 A 
ATOM     20  C   UNL d   1     -26.873 -20.970  -5.797  0.00  0.00     0.149 A 
ENDROOT
BRANCH   6  21
ATOM     21  C   UNL d   1     -24.256 -16.631  -1.078  0.00  0.00    -0.014 C 
ATOM     22  C   UNL d   1     -23.675 -16.012  -1.607  0.00  0.00     0.010 C 
BRANCH  21  23
ATOM     23  C   UNL d   1     -23.965 -16.938  -0.171  0.00  0.00     0.005 C 
BRANCH  23  24
ATOM     24  C   UNL d   1     -23.739 -16.266   0.535  0.00  0.00     0.005 C 
BRANCH  24  25
ATOM     25  C   UNL d   1     -23.435 -16.572   1.437  0.00  0.00    -0.015 C 
ATOM     26  C   UNL d   1     -23.407 -17.549   1.649  0.00  0.00     0.010 C 
BRANCH  25  27
ATOM     27  C   UNL d   1     -23.160 -15.902   2.125  0.00  0.00    -0.019 C 
ATOM     28  C   UNL d   1     -23.728 -15.096   2.292  0.00  0.00     0.010 C 
ATOM     29  C   UNL d   1     -22.317 -16.037   2.648  0.00  0.00     0.010 C 
ENDBRANCH  25  27
ENDBRANCH  24  25
ENDBRANCH  23  24
ENDBRANCH  21  23
ENDBRANCH   6  21
TORSDOF 5
ENDMDL
MODEL 3
REMARK VINA RESULT:    -8.314     23.597     26.948
REMARK INTER + INTRA:          -0.282
REMARK INTER:                 -10.810
REMARK INTRA:                  10.528
REMARK UNBOUND:                10.462
REMARK  5 active torsions:
REMARK  status: ('A' for Active; 'I' for Inactive)
REMARK    1  A    between atoms: C_6  and  C_13 
REMARK    2  A    between atoms: C_13  and  C_19 
REMARK    3  A    between atoms: C_19  and  C_24 
REMARK    4  A    between atoms: C_24  and  C_25 
REMARK    5  A    between atoms: C_25  and  C_26 
ROOT
ATOM      1  O   UNL d   1     -16.697 -10.771   3.496  0.00  0.00    -0.293 OA
ATOM      2  C   UNL d   1     -11.810 -14.031   1.522  0.00  0.00    -0.036 A 
ATOM      3  C   UNL d   1     -12.177 -13.299   0.949  0.00  0.00    -0.002 A 
ATOM      4  C   UNL d   1     -12.966 -12.768   1.260  0.00  0.00    -0.004 A 
ATOM      5  C   UNL d   1     -13.386 -12.970   2.145  0.00  0.00     0.002 A 
ATOM      6  C   UNL d   1     -11.038 -14.433   1.043  0.00  0.00    -0.002 A 
ATOM      7  C   UNL d   1     -12.230 -14.233   2.406  0.00  0.00     0.010 A 
ATOM      8  C   UNL d   1     -11.629 -13.255   0.121  0.00  0.00     0.006 A 
ATOM      9  C   UNL d   1     -14.208 -12.426   2.482  0.00  0.00    -0.016 A 
ATOM     10  C   UNL d   1     -13.018 -13.702   2.718  0.00  0.00     0.007 A 
ATOM     11  C   UNL d   1     -10.926 -13.955   0.179  0.00  0.00     0.006 A 
ATOM     12  C   UNL d   1     -13.338 -12.008   0.652  0.00  0.00     0.010 A 
ATOM     13  C   UNL d   1     -11.442 -14.763   2.095  0.00  0.00     0.016 C 
ATOM     14  C   UNL d   1     -14.597 -11.661   1.891  0.00  0.00    -0.068 A 
ATOM     15  C   UNL d   1     -14.159 -11.451   0.969  0.00  0.00     0.035 A 
ATOM     16  C   UNL d   1     -14.647 -12.663   3.446  0.00  0.00     0.022 A 
ATOM     17  C   UNL d   1     -13.835 -13.159   3.050  0.00  0.00     0.020 C 
ATOM     18  C   UNL d   1     -15.503 -12.096   3.798  0.00  0.00     0.084 A 
ATOM     19  C   UNL d   1     -15.452 -11.081   2.221  0.00  0.00     0.053 A 
ATOM     20  C   UNL d   1     -15.908 -11.300   3.181  0.00  0.00     0.149 A 
ENDROOT
BRANCH   6  21
ATOM     21  C   UNL d   1     -10.471 -15.189   1.373  0.00  0.00    -0.014 C 
ATOM     22  C   UNL d   1     -10.761 -16.134   1.223  0.00  0.00     0.010 C 
BRANCH  21  23
ATOM     23  C   UNL d   1      -9.614 -14.998   1.853  0.00  0.00     0.005 C 
BRANCH  23  24
ATOM     24  C   UNL d   1      -8.973 -15.742   2.045  0.00  0.00     0.005 C 
BRANCH  24  25
ATOM     25  C   UNL d   1      -8.176 -15.577   2.626  0.00  0.00    -0.015 C 
ATOM     26  C   UNL d   1      -7.699 -14.699   2.582  0.00  0.00     0.010 C 
BRANCH  25  27
ATOM     27  C   UNL d   1      -7.857 -16.289   3.250  0.00  0.00    -0.019 C 
ATOM     28  C   UNL d   1      -8.049 -16.218   4.230  0.00  0.00     0.010 C 
ATOM     29  C   UNL d   1      -7.346 -17.074   2.896  0.00  0.00     0.010 C 
ENDBRANCH  25  27
ENDBRANCH  24  25
ENDBRANCH  23  24
ENDBRANCH  21  23
ENDBRANCH   6  21
TORSDOF 5
ENDMDL
MODEL 4
REMARK VINA RESULT:    -8.143      2.302      7.027
REMARK INTER + INTRA:          -0.061
REMARK INTER:                 -10.542
REMARK INTRA:                  10.482
REMARK UNBOUND:                10.462
REMARK  5 active torsions:
REMARK  status: ('A' for Active; 'I' for Inactive)
REMARK    1  A    between atoms: C_6  and  C_13 
REMARK    2  A    between atoms: C_13  and  C_19 
REMARK    3  A    between atoms: C_19  and  C_24 
REMARK    4  A    between atoms: C_24  and  C_25 
REMARK    5  A    between atoms: C_25  and  C_26 
ROOT
ATOM      1  O   UNL d   1       4.006 -29.602 -11.001  0.00  0.00    -0.293 OA
ATOM      2  C   UNL d   1      -0.016 -32.951 -14.320  0.00  0.00    -0.036 A 
ATOM      3  C   UNL d   1       0.887 -33.328 -14.113  0.00  0.00    -0.002 A 
ATOM      4  C   UNL d   1       1.541 -32.794 -13.578  0.00  0.00    -0.004 A 
ATOM      5  C   UNL d   1       1.293 -31.883 -13.250  0.00  0.00     0.002 A 
ATOM      6  C   UNL d   1      -0.513 -33.626 -14.854  0.00  0.00    -0.002 A 
ATOM      7  C   UNL d   1      -0.264 -32.040 -13.991  0.00  0.00     0.010 A 
ATOM      8  C   UNL d   1       0.940 -34.233 -14.522  0.00  0.00     0.006 A 
ATOM      9  C   UNL d   1       1.964 -31.315 -12.691  0.00  0.00    -0.016 A 
ATOM     10  C   UNL d   1       0.390 -31.506 -13.456  0.00  0.00     0.007 A 
ATOM     11  C   UNL d   1       0.076 -34.416 -14.979  0.00  0.00     0.006 A 
ATOM     12  C   UNL d   1       2.478 -33.200 -13.371  0.00  0.00     0.010 A 
ATOM     13  C   UNL d   1      -0.919 -32.574 -14.526  0.00  0.00     0.016 C 
ATOM     14  C   UNL d   1       2.907 -31.701 -12.472  0.00  0.00    -0.068 A 
ATOM     15  C   UNL d   1       3.166 -32.650 -12.815  0.00  0.00     0.035 A 
ATOM     16  C   UNL d   1       1.673 -30.328 -12.345  0.00  0.00     0.022 A 
ATOM     17  C   UNL d   1       1.060 -30.944 -12.902  0.00  0.00     0.020 C 
ATOM     18  C   UNL d   1       2.372 -29.737 -11.764  0.00  0.00     0.084 A 
ATOM     19  C   UNL d   1       3.623 -31.128 -11.893  0.00  0.00     0.053 A 
ATOM     20  C   UNL d   1       3.353 -30.139 -11.536  0.00  0.00     0.149 A 
ENDROOT
BRANCH   6  21
ATOM     21  C   UNL d   1      -1.444 -33.527 -15.205  0.00  0.00    -0.014 C 
ATOM     22  C   UNL d   1      -2.223 -33.790 -14.636  0.00  0.00     0.010 C 
BRANCH  21  23
ATOM     23  C   UNL d   1      -1.596 -33.164 -16.125  0.00  0.00     0.005 C 
BRANCH  23  24
ATOM     24  C   UNL d   1      -2.348 -33.516 -16.683  0.00  0.00     0.005 C 
BRANCH  24  25
ATOM     25  C   UNL d   1      -2.402 -33.281 -17.654  0.00  0.00    -0.015 C 
ATOM     26  C   UNL d   1      -1.614 -32.872 -18.113  0.00  0.00     0.010 C 
BRANCH  25  27
ATOM     27  C   UNL d   1      -3.244 -33.456 -18.163  0.00  0.00    -0.019 C 
ATOM     28  C   UNL d   1      -3.468 -32.901 -18.965  0.00  0.00     0.010 C 
ATOM     29  C   UNL d   1      -3.863 -34.187 -17.872  0.00  0.00     0.010 C 
ENDBRANCH  25  27
ENDBRANCH  24  25
ENDBRANCH  23  24
ENDBRANCH  21  23
ENDBRANCH   6  21
TORSDOF 5
ENDMDL
MODEL 5
REMARK VINA RESULT:    -7.934      0.766      1.750
REMARK INTER + INTRA:           0.210
REMARK INTER:                 -10.235
REMARK INTRA:                  10.445
REMARK UNBOUND:                10.462
REMARK  5 active torsions:
REMARK  status: ('A' for Active; 'I' for Inactive)
REMARK    1  A    between atoms: C_6  and  C_13 
REMARK    2  A    between atoms: C_13  and  C_19 
REMARK    3  A    between atoms: C_19  and  C_24 
REMARK    4  A    between atoms: C_24  and  C_25 
REMARK    5  A    between atoms: C_25  and  C_26 
ROOT
ATOM      1  O   UNL d   1      -1.317 -35.427 -15.701  0.00  0.00    -0.293 OA
ATOM      2  C   UNL d   1       2.274 -31.400 -12.654  0.00  0.00    -0.036 A 
ATOM      3  C   UNL d   1       1.345 -31.135 -12.910  0.00  0.00    -0.002 A 
ATOM      4  C   UNL d   1       0.759 -31.779 -13.402  0.00  0.00    -0.004 A 
ATOM      5  C   UNL d   1       1.103 -32.688 -13.638  0.00  0.00     0.002 A 
ATOM      6  C   UNL d   1       2.689 -30.632 -12.179  0.00  0.00    -0.002 A 
ATOM      7  C   UNL d   1       2.618 -32.309 -12.889  0.00  0.00     0.010 A 
ATOM      8  C   UNL d   1       1.193 -30.206 -12.591  0.00  0.00     0.006 A 
ATOM      9  C   UNL d   1       0.504 -33.370 -14.150  0.00  0.00    -0.016 A 
ATOM     10  C   UNL d   1       2.032 -32.953 -13.381  0.00  0.00     0.007 A 
ATOM     11  C   UNL d   1       2.023 -29.895 -12.140  0.00  0.00     0.006 A 
ATOM     12  C   UNL d   1      -0.207 -31.489 -13.663  0.00  0.00     0.010 A 
ATOM     13  C   UNL d   1       3.204 -31.665 -12.398  0.00  0.00     0.016 C 
ATOM     14  C   UNL d   1      -0.465 -33.101 -14.420  0.00  0.00    -0.068 A 
ATOM     15  C   UNL d   1      -0.824 -32.154 -14.175  0.00  0.00     0.035 A 
ATOM     16  C   UNL d   1       0.899 -34.351 -14.394  0.00  0.00     0.022 A 
ATOM     17  C   UNL d   1       1.435 -33.628 -13.890  0.00  0.00     0.020 C 
ATOM     18  C   UNL d   1       0.276 -35.061 -14.928  0.00  0.00     0.084 A 
ATOM     19  C   UNL d   1      -1.107 -33.794 -14.954  0.00  0.00     0.053 A 
ATOM     20  C   UNL d   1      -0.734 -34.781 -15.209  0.00  0.00     0.149 A 
ENDROOT
BRANCH   6  21
ATOM     21  C   UNL d   1       3.617 -30.605 -11.804  0.00  0.00    -0.014 C 
ATOM     22  C   UNL d   1       4.397 -30.462 -12.413  0.00  0.00     0.010 C 
BRANCH  21  23
ATOM     23  C   UNL d   1       3.763 -30.721 -10.822  0.00  0.00     0.005 C 
BRANCH  23  24
ATOM     24  C   UNL d   1       4.266 -30.027 -10.306  0.00  0.00     0.005 C 
BRANCH  24  25
ATOM     25  C   UNL d   1       4.123 -29.936  -9.320  0.00  0.00    -0.015 C 
ATOM     26  C   UNL d   1       3.978 -30.751  -8.759  0.00  0.00     0.010 C 
BRANCH  25  27
ATOM     27  C   UNL d   1       4.126 -29.030  -8.898  0.00  0.00    -0.019 C 
ATOM     28  C   UNL d   1       3.275 -28.509  -8.827  0.00  0.00     0.010 C 
ATOM     29  C   UNL d   1       4.980 -28.644  -8.546  0.00  0.00     0.010 C 
ENDBRANCH  25  27
ENDBRANCH  24  25
ENDBRANCH  23  24
ENDBRANCH  21  23
ENDBRANCH   6  21
TORSDOF 5
ENDMDL
