MODEL 1
REMARK VINA RESULT:   -11.100      0.000      0.000
REMARK INTER + INTRA:          -6.344
REMARK INTER:                 -16.037
REMARK INTRA:                   9.693
REMARK UNBOUND:                11.244
REMARK  14 active torsions:
REMARK  status: ('A' for Active; 'I' for Inactive)
REMARK    1  A    between atoms: C_15  and  O_1 
REMARK    2  A    between atoms: C_18  and  O_1 
REMARK    3  A    between atoms: C_16  and  O_4 
REMARK    4  A    between atoms: C_20  and  O_5 
REMARK    5  A    between atoms: O_5  and  C_27 
REMARK    6  A    between atoms: C_17  and  O_6 
REMARK    7  A    between atoms: C_19  and  O_7 
REMARK    8  A    between atoms: C_22  and  O_8 
REMARK    9  A    between atoms: C_23  and  O_9 
REMARK   10  A    between atoms: O_10  and  C_25 
REMARK   11  A    between atoms: O_12  and  C_31 
REMARK   12  A    between atoms: O_14  and  C_41 
REMARK   13  A    between atoms: C_21  and  C_25 
REMARK   14  A    between atoms: C_34  and  C_36 
ROOT
ATOM      1  O   UNL d   1     -41.923  -2.870 -14.239  0.00  0.00    -0.348 OA
ATOM      2  C   UNL d   1     -41.718  -1.245 -13.676  0.00  0.00     0.211 A 
ATOM      3  C   UNL d   1     -42.305  -0.914 -14.415  0.00  0.00     0.183 A 
ATOM      4  C   UNL d   1     -42.701  -1.562 -15.067  0.00  0.00     0.180 A 
ATOM      5  C   UNL d   1     -41.528  -2.223 -13.588  0.00  0.00     0.298 A 
ATOM      6  C   UNL d   1     -42.510  -2.539 -14.979  0.00  0.00     0.179 A 
ENDROOT
BRANCH   5   7
ATOM      7  O   UNL d   1     -40.941  -2.553 -12.849  0.00  0.00    -0.318 OA
BRANCH   7   8
ATOM      8  C   UNL d   1     -40.914  -3.529 -12.630  0.00  0.00     0.077 A 
ATOM      9  C   UNL d   1     -41.550  -3.922 -11.905  0.00  0.00     0.075 A 
ATOM     10  C   UNL d   1     -41.513  -4.939 -11.685  0.00  0.00     0.095 A 
ATOM     11  O   UNL d   1     -42.127  -5.310 -10.988  0.00  0.00    -0.309 OA
ATOM     12  C   UNL d   1     -40.875  -5.545 -12.161  0.00  0.00     0.081 A 
ATOM     13  C   UNL d   1     -42.102  -6.284 -10.766  0.00  0.00     0.090 A 
ATOM     14  C   UNL d   1     -41.464  -6.889 -11.243  0.00  0.00     0.094 A 
ATOM     15  C   UNL d   1     -40.850  -6.520 -11.940  0.00  0.00     0.190 A 
ATOM     16  O   UNL d   1     -40.212  -7.124 -12.416  0.00  0.00    -0.287 OA
ATOM     17  C   UNL d   1     -40.229  -5.173 -12.890  0.00  0.00     0.085 A 
ATOM     18  C   UNL d   1     -40.249  -4.160 -13.126  0.00  0.00     0.074 A 
BRANCH  13  19
ATOM     19  C   UNL d   1     -42.716  -6.655 -10.069  0.00  0.00    -0.002 A 
ATOM     20  C   UNL d   1     -42.349  -6.959  -9.190  0.00  0.00     0.017 A 
ATOM     21  C   UNL d   1     -42.963  -7.329  -8.493  0.00  0.00     0.037 A 
ATOM     22  C   UNL d   1     -43.944  -7.395  -8.675  0.00  0.00     0.065 A 
ATOM     23  C   UNL d   1     -44.311  -7.091  -9.554  0.00  0.00     0.037 A 
ATOM     24  C   UNL d   1     -43.697  -6.720 -10.251  0.00  0.00     0.017 A 
BRANCH  22  25
ATOM     25  O   UNL d   1     -44.558  -7.765  -7.977  0.00  0.00    -0.361 OA
ATOM     26  H   UNL d   1     -44.462  -7.634  -7.379  0.00  0.00     0.217 HD
ENDBRANCH  22  25
ENDBRANCH  13  19
BRANCH  17  27
ATOM     27  O   UNL d   1     -39.595  -5.788 -13.360  0.00  0.00    -0.360 OA
ATOM     28  H   UNL d   1     -39.383  -5.642 -13.924  0.00  0.00     0.217 HD
ENDBRANCH  17  27
ENDBRANCH   7   8
ENDBRANCH   5   7
BRANCH   2  29
ATOM     29  O   UNL d   1     -41.322  -0.598 -13.024  0.00  0.00    -0.346 OA
BRANCH  29  30
ATOM     30  C   UNL d   1     -41.798  -0.396 -12.168  0.00  0.00     0.292 A 
ATOM     31  O   UNL d   1     -42.767  -0.621 -12.070  0.00  0.00    -0.351 OA
ATOM     32  C   UNL d   1     -43.243  -0.419 -11.213  0.00  0.00     0.152 A 
ATOM     33  C   UNL d   1     -42.749   0.007 -10.455  0.00  0.00     0.178 A 
ATOM     34  C   UNL d   1     -44.212  -0.643 -11.115  0.00  0.00     0.042 C 
ATOM     35  C   UNL d   1     -41.779   0.231 -10.554  0.00  0.00     0.183 A 
ATOM     36  C   UNL d   1     -41.304   0.029 -11.410  0.00  0.00     0.204 A 
BRANCH  33  37
ATOM     37  O   UNL d   1     -43.224   0.208  -9.599  0.00  0.00    -0.390 OA
ATOM     38  H   UNL d   1     -42.996   0.634  -9.211  0.00  0.00     0.210 HD
ENDBRANCH  33  37
BRANCH  35  39
ATOM     39  O   UNL d   1     -41.285   0.657  -9.796  0.00  0.00    -0.390 OA
ATOM     40  H   UNL d   1     -40.984   1.191  -9.883  0.00  0.00     0.210 HD
ENDBRANCH  35  39
BRANCH  36  41
ATOM     41  O   UNL d   1     -40.334   0.254 -11.508  0.00  0.00    -0.388 OA
ATOM     42  H   UNL d   1     -39.902  -0.146 -11.312  0.00  0.00     0.210 HD
ENDBRANCH  36  41
ENDBRANCH  29  30
ENDBRANCH   2  29
BRANCH   6  43
ATOM     43  C   UNL d   1     -42.906  -3.187 -15.630  0.00  0.00     0.198 C 
BRANCH  43  44
ATOM     44  O   UNL d   1     -42.871  -4.168 -15.444  0.00  0.00    -0.398 OA
ATOM     45  H   UNL d   1     -43.161  -4.566 -15.821  0.00  0.00     0.209 HD
ENDBRANCH  43  44
ENDBRANCH   6  43
BRANCH   3  46
ATOM     46  O   UNL d   1     -42.496   0.063 -14.503  0.00  0.00    -0.390 OA
ATOM     47  H   UNL d   1     -43.026   0.297 -14.283  0.00  0.00     0.210 HD
ENDBRANCH   3  46
BRANCH   4  48
ATOM     48  O   UNL d   1     -43.287  -1.231 -15.806  0.00  0.00    -0.390 OA
ATOM     49  H   UNL d   1     -43.721  -0.803 -15.690  0.00  0.00     0.210 HD
ENDBRANCH   4  48
TORSDOF 14
ENDMDL
MODEL 2
REMARK VINA RESULT:   -10.995     35.272     38.508
REMARK INTER + INTRA:          -6.178
REMARK INTER:                 -16.421
REMARK INTRA:                  10.243
REMARK UNBOUND:                11.244
REMARK  14 active torsions:
REMARK  status: ('A' for Active; 'I' for Inactive)
REMARK    1  A    between atoms: C_15  and  O_1 
REMARK    2  A    between atoms: C_18  and  O_1 
REMARK    3  A    between atoms: C_16  and  O_4 
REMARK    4  A    between atoms: C_20  and  O_5 
REMARK    5  A    between atoms: O_5  and  C_27 
REMARK    6  A    between atoms: C_17  and  O_6 
REMARK    7  A    between atoms: C_19  and  O_7 
REMARK    8  A    between atoms: C_22  and  O_8 
REMARK    9  A    between atoms: C_23  and  O_9 
REMARK   10  A    between atoms: O_10  and  C_25 
REMARK   11  A    between atoms: O_12  and  C_31 
REMARK   12  A    between atoms: O_14  and  C_41 
REMARK   13  A    between atoms: C_21  and  C_25 
REMARK   14  A    between atoms: C_34  and  C_36 
ROOT
ATOM      1  O   UNL d   1     -23.904 -24.324 -35.803  0.00  0.00    -0.348 OA
ATOM      2  C   UNL d   1     -23.736 -25.920 -35.152  0.00  0.00     0.211 A 
ATOM      3  C   UNL d   1     -24.210 -25.632 -34.321  0.00  0.00     0.183 A 
ATOM      4  C   UNL d   1     -24.531 -24.689 -34.230  0.00  0.00     0.180 A 
ATOM      5  C   UNL d   1     -23.583 -25.267 -35.894  0.00  0.00     0.298 A 
ATOM      6  C   UNL d   1     -24.378 -24.035 -34.971  0.00  0.00     0.179 A 
ENDROOT
BRANCH   5   7
ATOM      7  O   UNL d   1     -23.109 -25.555 -36.725  0.00  0.00    -0.318 OA
BRANCH   7   8
ATOM      8  C   UNL d   1     -23.171 -25.000 -37.555  0.00  0.00     0.077 A 
ATOM      9  C   UNL d   1     -22.573 -24.155 -37.667  0.00  0.00     0.075 A 
ATOM     10  C   UNL d   1     -22.647 -23.584 -38.535  0.00  0.00     0.095 A 
ATOM     11  O   UNL d   1     -22.069 -22.774 -38.635  0.00  0.00    -0.309 OA
ATOM     12  C   UNL d   1     -23.284 -23.837 -39.263  0.00  0.00     0.081 A 
ATOM     13  C   UNL d   1     -22.129 -22.216 -39.463  0.00  0.00     0.090 A 
ATOM     14  C   UNL d   1     -22.766 -22.469 -40.191  0.00  0.00     0.094 A 
ATOM     15  C   UNL d   1     -23.344 -23.279 -40.091  0.00  0.00     0.190 A 
ATOM     16  O   UNL d   1     -23.981 -23.532 -40.819  0.00  0.00    -0.287 OA
ATOM     17  C   UNL d   1     -23.892 -24.678 -39.173  0.00  0.00     0.085 A 
ATOM     18  C   UNL d   1     -23.835 -25.263 -38.314  0.00  0.00     0.074 A 
BRANCH  13  19
ATOM     19  C   UNL d   1     -21.552 -21.406 -39.563  0.00  0.00    -0.002 A 
ATOM     20  C   UNL d   1     -21.864 -20.522 -39.214  0.00  0.00     0.017 A 
ATOM     21  C   UNL d   1     -21.286 -19.713 -39.314  0.00  0.00     0.037 A 
ATOM     22  C   UNL d   1     -20.396 -19.785 -39.764  0.00  0.00     0.065 A 
ATOM     23  C   UNL d   1     -20.084 -20.669 -40.113  0.00  0.00     0.037 A 
ATOM     24  C   UNL d   1     -20.661 -21.479 -40.013  0.00  0.00     0.017 A 
BRANCH  22  25
ATOM     25  O   UNL d   1     -19.819 -18.975 -39.864  0.00  0.00    -0.361 OA
ATOM     26  H   UNL d   1     -19.815 -18.540 -39.422  0.00  0.00     0.217 HD
ENDBRANCH  22  25
ENDBRANCH  13  19
BRANCH  17  27
ATOM     27  O   UNL d   1     -24.525 -24.921 -39.908  0.00  0.00    -0.360 OA
ATOM     28  H   UNL d   1     -24.323 -24.950 -40.494  0.00  0.00     0.217 HD
ENDBRANCH  17  27
ENDBRANCH   7   8
ENDBRANCH   5   7
BRANCH   2  29
ATOM     29  O   UNL d   1     -23.414 -26.863 -35.243  0.00  0.00    -0.346 OA
BRANCH  29  30
ATOM     30  C   UNL d   1     -24.067 -27.598 -35.427  0.00  0.00     0.292 A 
ATOM     31  O   UNL d   1     -24.881 -27.418 -35.979  0.00  0.00    -0.351 OA
ATOM     32  C   UNL d   1     -25.534 -28.153 -36.162  0.00  0.00     0.152 A 
ATOM     33  C   UNL d   1     -25.372 -29.069 -35.794  0.00  0.00     0.178 A 
ATOM     34  C   UNL d   1     -26.348 -27.973 -36.714  0.00  0.00     0.042 C 
ATOM     35  C   UNL d   1     -24.558 -29.249 -35.242  0.00  0.00     0.183 A 
ATOM     36  C   UNL d   1     -23.905 -28.514 -35.058  0.00  0.00     0.204 A 
BRANCH  33  37
ATOM     37  O   UNL d   1     -26.025 -29.804 -35.977  0.00  0.00    -0.390 OA
ATOM     38  H   UNL d   1     -25.820 -30.366 -36.141  0.00  0.00     0.210 HD
ENDBRANCH  33  37
BRANCH  35  39
ATOM     39  O   UNL d   1     -24.396 -30.164 -34.873  0.00  0.00    -0.390 OA
ATOM     40  H   UNL d   1     -24.579 -30.303 -34.297  0.00  0.00     0.210 HD
ENDBRANCH  35  39
BRANCH  36  41
ATOM     41  O   UNL d   1     -23.091 -28.694 -34.506  0.00  0.00    -0.388 OA
ATOM     42  H   UNL d   1     -22.602 -28.979 -34.759  0.00  0.00     0.210 HD
ENDBRANCH  36  41
ENDBRANCH  29  30
ENDBRANCH   2  29
BRANCH   6  43
ATOM     43  C   UNL d   1     -24.700 -23.093 -34.881  0.00  0.00     0.198 C 
BRANCH  43  44
ATOM     44  O   UNL d   1     -24.080 -22.332 -35.076  0.00  0.00    -0.398 OA
ATOM     45  H   UNL d   1     -23.914 -21.944 -34.623  0.00  0.00     0.209 HD
ENDBRANCH  43  44
ENDBRANCH   6  43
BRANCH   3  46
ATOM     46  O   UNL d   1     -24.363 -26.285 -33.580  0.00  0.00    -0.390 OA
ATOM     47  H   UNL d   1     -23.880 -26.521 -33.270  0.00  0.00     0.210 HD
ENDBRANCH   3  46
BRANCH   4  48
ATOM     48  O   UNL d   1     -25.005 -24.400 -33.398  0.00  0.00    -0.390 OA
ATOM     49  H   UNL d   1     -24.758 -23.962 -33.037  0.00  0.00     0.210 HD
ENDBRANCH   4  48
TORSDOF 14
ENDMDL
MODEL 3
REMARK VINA RESULT:   -10.993     35.433     38.642
REMARK INTER + INTRA:          -6.175
REMARK INTER:                 -16.191
REMARK INTRA:                  10.016
REMARK UNBOUND:                11.244
REMARK  14 active torsions:
REMARK  status: ('A' for Active; 'I' for Inactive)
REMARK    1  A    between atoms: C_15  and  O_1 
REMARK    2  A    between atoms: C_18  and  O_1 
REMARK    3  A    between atoms: C_16  and  O_4 
REMARK    4  A    between atoms: C_20  and  O_5 
REMARK    5  A    between atoms: O_5  and  C_27 
REMARK    6  A    between atoms: C_17  and  O_6 
REMARK    7  A    between atoms: C_19  and  O_7 
REMARK    8  A    between atoms: C_22  and  O_8 
REMARK    9  A    between atoms: C_23  and  O_9 
REMARK   10  A    between atoms: O_10  and  C_25 
REMARK   11  A    between atoms: O_12  and  C_31 
REMARK   12  A    between atoms: O_14  and  C_41 
REMARK   13  A    between atoms: C_21  and  C_25 
REMARK   14  A    between atoms: C_34  and  C_36 
ROOT
ATOM      1  O   UNL d   1     -24.033 -23.298 -36.201  0.00  0.00    -0.348 OA
ATOM      2  C   UNL d   1     -24.766 -24.781 -35.690  0.00  0.00     0.211 A 
ATOM      3  C   UNL d   1     -24.840 -24.424 -34.759  0.00  0.00     0.183 A 
ATOM      4  C   UNL d   1     -24.511 -23.504 -34.549  0.00  0.00     0.180 A 
ATOM      5  C   UNL d   1     -24.363 -24.218 -36.411  0.00  0.00     0.298 A 
ATOM      6  C   UNL d   1     -24.107 -22.940 -35.270  0.00  0.00     0.179 A 
ENDROOT
BRANCH   5   7
ATOM      7  O   UNL d   1     -24.289 -24.575 -37.342  0.00  0.00    -0.318 OA
BRANCH   7   8
ATOM      8  C   UNL d   1     -24.158 -23.948 -38.109  0.00  0.00     0.077 A 
ATOM      9  C   UNL d   1     -23.225 -23.863 -38.565  0.00  0.00     0.075 A 
ATOM     10  C   UNL d   1     -23.101 -23.207 -39.364  0.00  0.00     0.095 A 
ATOM     11  O   UNL d   1     -22.202 -23.131 -39.796  0.00  0.00    -0.309 OA
ATOM     12  C   UNL d   1     -23.864 -22.655 -39.699  0.00  0.00     0.081 A 
ATOM     13  C   UNL d   1     -22.068 -22.504 -40.564  0.00  0.00     0.090 A 
ATOM     14  C   UNL d   1     -22.832 -21.953 -40.899  0.00  0.00     0.094 A 
ATOM     15  C   UNL d   1     -23.730 -22.028 -40.467  0.00  0.00     0.190 A 
ATOM     16  O   UNL d   1     -24.494 -21.477 -40.802  0.00  0.00    -0.287 OA
ATOM     17  C   UNL d   1     -24.806 -22.723 -39.258  0.00  0.00     0.085 A 
ATOM     18  C   UNL d   1     -24.954 -23.373 -38.459  0.00  0.00     0.074 A 
BRANCH  13  19
ATOM     19  C   UNL d   1     -21.169 -22.429 -40.997  0.00  0.00    -0.002 A 
ATOM     20  C   UNL d   1     -20.357 -22.262 -40.438  0.00  0.00     0.017 A 
ATOM     21  C   UNL d   1     -19.459 -22.187 -40.871  0.00  0.00     0.037 A 
ATOM     22  C   UNL d   1     -19.373 -22.278 -41.863  0.00  0.00     0.065 A 
ATOM     23  C   UNL d   1     -20.185 -22.444 -42.422  0.00  0.00     0.037 A 
ATOM     24  C   UNL d   1     -21.084 -22.520 -41.989  0.00  0.00     0.017 A 
BRANCH  22  25
ATOM     25  O   UNL d   1     -18.474 -22.202 -42.296  0.00  0.00    -0.361 OA
ATOM     26  H   UNL d   1     -18.419 -21.927 -42.849  0.00  0.00     0.217 HD
ENDBRANCH  22  25
ENDBRANCH  13  19
BRANCH  17  27
ATOM     27  O   UNL d   1     -25.563 -22.166 -39.602  0.00  0.00    -0.360 OA
ATOM     28  H   UNL d   1     -25.784 -22.263 -40.174  0.00  0.00     0.217 HD
ENDBRANCH  17  27
ENDBRANCH   7   8
ENDBRANCH   5   7
BRANCH   2  29
ATOM     29  O   UNL d   1     -25.095 -25.702 -35.900  0.00  0.00    -0.346 OA
BRANCH  29  30
ATOM     30  C   UNL d   1     -24.499 -26.492 -35.754  0.00  0.00     0.292 A 
ATOM     31  O   UNL d   1     -23.517 -26.359 -35.623  0.00  0.00    -0.351 OA
ATOM     32  C   UNL d   1     -22.921 -27.148 -35.477  0.00  0.00     0.152 A 
ATOM     33  C   UNL d   1     -23.307 -28.071 -35.463  0.00  0.00     0.178 A 
ATOM     34  C   UNL d   1     -21.938 -27.016 -35.345  0.00  0.00     0.042 C 
ATOM     35  C   UNL d   1     -24.289 -28.203 -35.595  0.00  0.00     0.183 A 
ATOM     36  C   UNL d   1     -24.886 -27.414 -35.741  0.00  0.00     0.204 A 
BRANCH  33  37
ATOM     37  O   UNL d   1     -22.711 -28.860 -35.318  0.00  0.00    -0.390 OA
ATOM     38  H   UNL d   1     -22.304 -29.027 -35.756  0.00  0.00     0.210 HD
ENDBRANCH  33  37
BRANCH  35  39
ATOM     39  O   UNL d   1     -24.676 -29.126 -35.582  0.00  0.00    -0.390 OA
ATOM     40  H   UNL d   1     -24.348 -29.595 -35.344  0.00  0.00     0.210 HD
ENDBRANCH  35  39
BRANCH  36  41
ATOM     41  O   UNL d   1     -25.868 -27.547 -35.872  0.00  0.00    -0.388 OA
ATOM     42  H   UNL d   1     -26.072 -27.941 -36.305  0.00  0.00     0.210 HD
ENDBRANCH  36  41
ENDBRANCH  29  30
ENDBRANCH   2  29
BRANCH   6  43
ATOM     43  C   UNL d   1     -23.778 -22.020 -35.060  0.00  0.00     0.198 C 
BRANCH  43  44
ATOM     44  O   UNL d   1     -22.850 -21.751 -35.315  0.00  0.00    -0.398 OA
ATOM     45  H   UNL d   1     -22.735 -21.536 -35.886  0.00  0.00     0.209 HD
ENDBRANCH  43  44
ENDBRANCH   6  43
BRANCH   3  46
ATOM     46  O   UNL d   1     -25.244 -24.988 -34.038  0.00  0.00    -0.390 OA
ATOM     47  H   UNL d   1     -25.145 -24.846 -33.442  0.00  0.00     0.210 HD
ENDBRANCH   3  46
BRANCH   4  48
ATOM     48  O   UNL d   1     -24.585 -23.147 -33.618  0.00  0.00    -0.390 OA
ATOM     49  H   UNL d   1     -24.114 -23.218 -33.220  0.00  0.00     0.210 HD
ENDBRANCH   4  48
TORSDOF 14
ENDMDL
MODEL 4
REMARK VINA RESULT:   -10.984     22.333     25.713
REMARK INTER + INTRA:          -6.161
REMARK INTER:                 -16.654
REMARK INTRA:                  10.493
REMARK UNBOUND:                11.244
REMARK  14 active torsions:
REMARK  status: ('A' for Active; 'I' for Inactive)
REMARK    1  A    between atoms: C_15  and  O_1 
REMARK    2  A    between atoms: C_18  and  O_1 
REMARK    3  A    between atoms: C_16  and  O_4 
REMARK    4  A    between atoms: C_20  and  O_5 
REMARK    5  A    between atoms: O_5  and  C_27 
REMARK    6  A    between atoms: C_17  and  O_6 
REMARK    7  A    between atoms: C_19  and  O_7 
REMARK    8  A    between atoms: C_22  and  O_8 
REMARK    9  A    between atoms: C_23  and  O_9 
REMARK   10  A    between atoms: O_10  and  C_25 
REMARK   11  A    between atoms: O_12  and  C_31 
REMARK   12  A    between atoms: O_14  and  C_41 
REMARK   13  A    between atoms: C_21  and  C_25 
REMARK   14  A    between atoms: C_34  and  C_36 
ROOT
ATOM      1  O   UNL d   1     -36.881 -24.194 -21.559  0.00  0.00    -0.348 OA
ATOM      2  C   UNL d   1     -38.505 -23.723 -21.932  0.00  0.00     0.211 A 
ATOM      3  C   UNL d   1     -38.326 -22.812 -21.561  0.00  0.00     0.183 A 
ATOM      4  C   UNL d   1     -37.425 -22.592 -21.189  0.00  0.00     0.180 A 
ATOM      5  C   UNL d   1     -37.782 -24.414 -21.931  0.00  0.00     0.298 A 
ATOM      6  C   UNL d   1     -36.702 -23.283 -21.188  0.00  0.00     0.179 A 
ENDROOT
BRANCH   5   7
ATOM      7  O   UNL d   1     -37.961 -25.325 -22.302  0.00  0.00    -0.318 OA
BRANCH   7   8
ATOM      8  C   UNL d   1     -37.202 -25.893 -22.622  0.00  0.00     0.077 A 
ATOM      9  C   UNL d   1     -36.996 -25.969 -23.640  0.00  0.00     0.075 A 
ATOM     10  C   UNL d   1     -36.204 -26.563 -23.961  0.00  0.00     0.095 A 
ATOM     11  O   UNL d   1     -36.012 -26.631 -24.941  0.00  0.00    -0.309 OA
ATOM     12  C   UNL d   1     -35.637 -27.062 -23.306  0.00  0.00     0.081 A 
ATOM     13  C   UNL d   1     -35.254 -27.197 -25.264  0.00  0.00     0.090 A 
ATOM     14  C   UNL d   1     -34.688 -27.696 -24.608  0.00  0.00     0.094 A 
ATOM     15  C   UNL d   1     -34.879 -27.628 -23.629  0.00  0.00     0.190 A 
ATOM     16  O   UNL d   1     -34.313 -28.127 -22.973  0.00  0.00    -0.287 OA
ATOM     17  C   UNL d   1     -35.824 -27.001 -22.283  0.00  0.00     0.085 A 
ATOM     18  C   UNL d   1     -36.612 -26.413 -21.939  0.00  0.00     0.074 A 
BRANCH  13  19
ATOM     19  C   UNL d   1     -35.062 -27.265 -26.243  0.00  0.00    -0.002 A 
ATOM     20  C   UNL d   1     -35.598 -26.730 -26.896  0.00  0.00     0.017 A 
ATOM     21  C   UNL d   1     -35.406 -26.798 -27.875  0.00  0.00     0.037 A 
ATOM     22  C   UNL d   1     -34.679 -27.402 -28.201  0.00  0.00     0.065 A 
ATOM     23  C   UNL d   1     -34.143 -27.937 -27.548  0.00  0.00     0.037 A 
ATOM     24  C   UNL d   1     -34.335 -27.869 -26.569  0.00  0.00     0.017 A 
BRANCH  22  25
ATOM     25  O   UNL d   1     -34.487 -27.470 -29.181  0.00  0.00    -0.361 OA
ATOM     26  H   UNL d   1     -33.982 -27.771 -29.377  0.00  0.00     0.217 HD
ENDBRANCH  22  25
ENDBRANCH  13  19
BRANCH  17  27
ATOM     27  O   UNL d   1     -35.251 -27.504 -21.636  0.00  0.00    -0.360 OA
ATOM     28  H   UNL d   1     -34.845 -27.199 -21.279  0.00  0.00     0.217 HD
ENDBRANCH  17  27
ENDBRANCH   7   8
ENDBRANCH   5   7
BRANCH   2  29
ATOM     29  O   UNL d   1     -39.407 -23.943 -22.305  0.00  0.00    -0.346 OA
BRANCH  29  30
ATOM     30  C   UNL d   1     -40.073 -24.434 -21.743  0.00  0.00     0.292 A 
ATOM     31  O   UNL d   1     -40.043 -24.355 -20.747  0.00  0.00    -0.351 OA
ATOM     32  C   UNL d   1     -40.709 -24.845 -20.185  0.00  0.00     0.152 A 
ATOM     33  C   UNL d   1     -41.407 -25.414 -20.620  0.00  0.00     0.178 A 
ATOM     34  C   UNL d   1     -40.678 -24.766 -19.189  0.00  0.00     0.042 C 
ATOM     35  C   UNL d   1     -41.438 -25.493 -21.617  0.00  0.00     0.183 A 
ATOM     36  C   UNL d   1     -40.771 -25.003 -22.178  0.00  0.00     0.204 A 
BRANCH  33  37
ATOM     37  O   UNL d   1     -42.073 -25.905 -20.059  0.00  0.00    -0.390 OA
ATOM     38  H   UNL d   1     -42.672 -25.906 -20.219  0.00  0.00     0.210 HD
ENDBRANCH  33  37
BRANCH  35  39
ATOM     39  O   UNL d   1     -42.135 -26.063 -22.052  0.00  0.00    -0.390 OA
ATOM     40  H   UNL d   1     -42.267 -26.622 -21.820  0.00  0.00     0.210 HD
ENDBRANCH  35  39
BRANCH  36  41
ATOM     41  O   UNL d   1     -40.802 -25.082 -23.175  0.00  0.00    -0.388 OA
ATOM     42  H   UNL d   1     -40.825 -25.641 -23.441  0.00  0.00     0.210 HD
ENDBRANCH  36  41
ENDBRANCH  29  30
ENDBRANCH   2  29
BRANCH   6  43
ATOM     43  C   UNL d   1     -35.800 -23.063 -20.815  0.00  0.00     0.198 C 
BRANCH  43  44
ATOM     44  O   UNL d   1     -34.999 -23.062 -21.413  0.00  0.00    -0.398 OA
ATOM     45  H   UNL d   1     -35.070 -23.115 -22.027  0.00  0.00     0.209 HD
ENDBRANCH  43  44
ENDBRANCH   6  43
BRANCH   3  46
ATOM     46  O   UNL d   1     -39.049 -22.121 -21.562  0.00  0.00    -0.390 OA
ATOM     47  H   UNL d   1     -39.620 -22.269 -21.372  0.00  0.00     0.210 HD
ENDBRANCH   3  46
BRANCH   4  48
ATOM     48  O   UNL d   1     -37.246 -21.681 -20.818  0.00  0.00    -0.390 OA
ATOM     49  H   UNL d   1     -36.672 -21.524 -20.643  0.00  0.00     0.210 HD
ENDBRANCH   4  48
TORSDOF 14
ENDMDL
MODEL 5
REMARK VINA RESULT:   -10.790      1.913      3.067
REMARK INTER + INTRA:          -5.854
REMARK INTER:                 -16.263
REMARK INTRA:                  10.409
REMARK UNBOUND:                11.244
REMARK  14 active torsions:
REMARK  status: ('A' for Active; 'I' for Inactive)
REMARK    1  A    between atoms: C_15  and  O_1 
REMARK    2  A    between atoms: C_18  and  O_1 
REMARK    3  A    between atoms: C_16  and  O_4 
REMARK    4  A    between atoms: C_20  and  O_5 
REMARK    5  A    between atoms: O_5  and  C_27 
REMARK    6  A    between atoms: C_17  and  O_6 
REMARK    7  A    between atoms: C_19  and  O_7 
REMARK    8  A    between atoms: C_22  and  O_8 
REMARK    9  A    between atoms: C_23  and  O_9 
REMARK   10  A    between atoms: O_10  and  C_25 
REMARK   11  A    between atoms: O_12  and  C_31 
REMARK   12  A    between atoms: O_14  and  C_41 
REMARK   13  A    between atoms: C_21  and  C_25 
REMARK   14  A    between atoms: C_34  and  C_36 
ROOT
ATOM      1  O   UNL d   1     -41.171  -3.324 -12.558  0.00  0.00    -0.348 OA
ATOM      2  C   UNL d   1     -40.785  -1.636 -12.609  0.00  0.00     0.211 A 
ATOM      3  C   UNL d   1     -40.117  -1.810 -13.331  0.00  0.00     0.183 A 
ATOM      4  C   UNL d   1     -39.975  -2.741 -13.667  0.00  0.00     0.180 A 
ATOM      5  C   UNL d   1     -41.312  -2.393 -12.222  0.00  0.00     0.298 A 
ATOM      6  C   UNL d   1     -40.502  -3.498 -13.281  0.00  0.00     0.179 A 
ENDROOT
BRANCH   5   7
ATOM      7  O   UNL d   1     -41.981  -2.219 -11.500  0.00  0.00    -0.318 OA
BRANCH   7   8
ATOM      8  C   UNL d   1     -41.908  -2.697 -10.625  0.00  0.00     0.077 A 
ATOM      9  C   UNL d   1     -42.249  -3.678 -10.533  0.00  0.00     0.075 A 
ATOM     10  C   UNL d   1     -42.167  -4.166  -9.617  0.00  0.00     0.095 A 
ATOM     11  O   UNL d   1     -42.496  -5.107  -9.536  0.00  0.00    -0.309 OA
ATOM     12  C   UNL d   1     -41.767  -3.708  -8.823  0.00  0.00     0.081 A 
ATOM     13  C   UNL d   1     -42.425  -5.589  -8.663  0.00  0.00     0.090 A 
ATOM     14  C   UNL d   1     -42.024  -5.130  -7.870  0.00  0.00     0.094 A 
ATOM     15  C   UNL d   1     -41.695  -4.189  -7.950  0.00  0.00     0.190 A 
ATOM     16  O   UNL d   1     -41.295  -3.730  -7.157  0.00  0.00    -0.287 OA
ATOM     17  C   UNL d   1     -41.420  -2.727  -8.892  0.00  0.00     0.085 A 
ATOM     18  C   UNL d   1     -41.491  -2.219  -9.798  0.00  0.00     0.074 A 
BRANCH  13  19
ATOM     19  C   UNL d   1     -42.754  -6.530  -8.582  0.00  0.00    -0.002 A 
ATOM     20  C   UNL d   1     -43.614  -6.721  -8.109  0.00  0.00     0.017 A 
ATOM     21  C   UNL d   1     -43.942  -7.662  -8.029  0.00  0.00     0.037 A 
ATOM     22  C   UNL d   1     -43.411  -8.413  -8.421  0.00  0.00     0.065 A 
ATOM     23  C   UNL d   1     -42.551  -8.222  -8.894  0.00  0.00     0.037 A 
ATOM     24  C   UNL d   1     -42.222  -7.281  -8.975  0.00  0.00     0.017 A 
BRANCH  22  25
ATOM     25  O   UNL d   1     -43.740  -9.354  -8.341  0.00  0.00    -0.361 OA
ATOM     26  H   UNL d   1     -43.529  -9.718  -7.885  0.00  0.00     0.217 HD
ENDBRANCH  22  25
ENDBRANCH  13  19
BRANCH  17  27
ATOM     27  O   UNL d   1     -41.021  -2.278  -8.092  0.00  0.00    -0.360 OA
ATOM     28  H   UNL d   1     -41.386  -2.102  -7.622  0.00  0.00     0.217 HD
ENDBRANCH  17  27
ENDBRANCH   7   8
ENDBRANCH   5   7
BRANCH   2  29
ATOM     29  O   UNL d   1     -40.927  -0.705 -12.273  0.00  0.00    -0.346 OA
BRANCH  29  30
ATOM     30  C   UNL d   1     -41.554  -0.091 -12.752  0.00  0.00     0.292 A 
ATOM     31  O   UNL d   1     -42.156  -0.448 -13.466  0.00  0.00    -0.351 OA
ATOM     32  C   UNL d   1     -42.783   0.167 -13.945  0.00  0.00     0.152 A 
ATOM     33  C   UNL d   1     -42.808   1.138 -13.710  0.00  0.00     0.178 A 
ATOM     34  C   UNL d   1     -43.384  -0.190 -14.660  0.00  0.00     0.042 C 
ATOM     35  C   UNL d   1     -42.207   1.495 -12.995  0.00  0.00     0.183 A 
ATOM     36  C   UNL d   1     -41.580   0.881 -12.516  0.00  0.00     0.204 A 
BRANCH  33  37
ATOM     37  O   UNL d   1     -43.435   1.753 -14.189  0.00  0.00    -0.390 OA
ATOM     38  H   UNL d   1     -43.555   1.665 -14.791  0.00  0.00     0.210 HD
ENDBRANCH  33  37
BRANCH  35  39
ATOM     39  O   UNL d   1     -42.232   2.467 -12.759  0.00  0.00    -0.390 OA
ATOM     40  H   UNL d   1     -42.405   2.884 -13.184  0.00  0.00     0.210 HD
ENDBRANCH  35  39
BRANCH  36  41
ATOM     41  O   UNL d   1     -40.978   1.238 -11.801  0.00  0.00    -0.388 OA
ATOM     42  H   UNL d   1     -40.859   1.846 -11.771  0.00  0.00     0.210 HD
ENDBRANCH  36  41
ENDBRANCH  29  30
ENDBRANCH   2  29
BRANCH   6  43
ATOM     43  C   UNL d   1     -40.360  -4.429 -13.617  0.00  0.00     0.198 C 
BRANCH  43  44
ATOM     44  O   UNL d   1     -41.137  -5.051 -13.709  0.00  0.00    -0.398 OA
ATOM     45  H   UNL d   1     -41.552  -5.099 -13.251  0.00  0.00     0.209 HD
ENDBRANCH  43  44
ENDBRANCH   6  43
BRANCH   3  46
ATOM     46  O   UNL d   1     -39.590  -1.053 -13.718  0.00  0.00    -0.390 OA
ATOM     47  H   UNL d   1     -39.488  -0.542 -13.381  0.00  0.00     0.210 HD
ENDBRANCH   3  46
BRANCH   4  48
ATOM     48  O   UNL d   1     -39.306  -2.915 -14.390  0.00  0.00    -0.390 OA
ATOM     49  H   UNL d   1     -39.460  -2.826 -14.984  0.00  0.00     0.210 HD
ENDBRANCH   4  48
TORSDOF 14
ENDMDL
