MODEL 1
REMARK VINA RESULT:    -8.976      0.000      0.000
REMARK INTER + INTRA:           0.320
REMARK INTER:                 -12.145
REMARK INTRA:                  12.465
REMARK UNBOUND:                12.445
REMARK  9 active torsions:
REMARK  status: ('A' for Active; 'I' for Inactive)
REMARK    1  A    between atoms: C_15  and  O_2 
REMARK    2  A    between atoms: O_2  and  C_17 
REMARK    3  A    between atoms: C_11  and  O_3 
REMARK    4  A    between atoms: C_12  and  O_4 
REMARK    5  A    between atoms: C_13  and  O_5 
REMARK    6  A    between atoms: O_8  and  C_23 
REMARK    7  A    between atoms: O_9  and  C_28 
REMARK    8  A    between atoms: O_10  and  C_31 
REMARK    9  A    between atoms: C_18  and  C_22 
ROOT
ATOM      1  O   UNL d   1     -34.439 -24.859 -22.081  0.00  0.00    -0.306 OA
ATOM      2  O   UNL d   1     -33.278 -27.045 -20.386  0.00  0.00    -0.284 OA
ATOM      3  C   UNL d   1     -34.254 -26.544 -21.726  0.00  0.00     0.157 A 
ATOM      4  C   UNL d   1     -34.641 -25.816 -22.291  0.00  0.00     0.123 A 
ATOM      5  C   UNL d   1     -33.665 -26.317 -20.951  0.00  0.00     0.223 A 
ATOM      6  C   UNL d   1     -33.463 -25.360 -20.741  0.00  0.00     0.084 A 
ATOM      7  C   UNL d   1     -33.850 -24.631 -21.306  0.00  0.00     0.096 A 
ATOM      8  C   UNL d   1     -32.848 -25.138 -19.930  0.00  0.00     0.085 A 
ATOM      9  C   UNL d   1     -33.648 -23.630 -21.099  0.00  0.00     0.075 A 
ATOM     10  C   UNL d   1     -32.632 -24.144 -19.705  0.00  0.00     0.074 A 
ATOM     11  C   UNL d   1     -33.035 -23.385 -20.293  0.00  0.00     0.071 A 
ENDROOT
BRANCH   3  12
ATOM     12  O   UNL d   1     -34.457 -27.501 -21.936  0.00  0.00    -0.311 OA
BRANCH  12  13
ATOM     13  C   UNL d   1     -35.020 -28.042 -21.312  0.00  0.00     0.298 A 
ATOM     14  O   UNL d   1     -35.691 -27.589 -20.724  0.00  0.00    -0.351 OA
ATOM     15  C   UNL d   1     -36.254 -28.130 -20.100  0.00  0.00     0.152 A 
ATOM     16  C   UNL d   1     -36.146 -29.124 -20.063  0.00  0.00     0.178 A 
ATOM     17  C   UNL d   1     -36.924 -27.678 -19.512  0.00  0.00     0.042 C 
ATOM     18  C   UNL d   1     -35.475 -29.576 -20.650  0.00  0.00     0.183 A 
ATOM     19  C   UNL d   1     -34.912 -29.035 -21.275  0.00  0.00     0.205 A 
BRANCH  16  20
ATOM     20  O   UNL d   1     -36.709 -29.665 -19.438  0.00  0.00    -0.390 OA
ATOM     21  H   UNL d   1     -36.784 -29.482 -18.850  0.00  0.00     0.210 HD
ENDBRANCH  16  20
BRANCH  18  22
ATOM     22  O   UNL d   1     -35.368 -30.570 -20.613  0.00  0.00    -0.390 OA
ATOM     23  H   UNL d   1     -35.800 -30.918 -20.338  0.00  0.00     0.210 HD
ENDBRANCH  18  22
BRANCH  19  24
ATOM     24  O   UNL d   1     -34.242 -29.488 -21.863  0.00  0.00    -0.388 OA
ATOM     25  H   UNL d   1     -34.401 -29.666 -22.434  0.00  0.00     0.210 HD
ENDBRANCH  19  24
ENDBRANCH  12  13
ENDBRANCH   3  12
BRANCH   4  26
ATOM     26  C   UNL d   1     -35.231 -26.043 -23.066  0.00  0.00     0.001 A 
ATOM     27  C   UNL d   1     -34.848 -26.506 -23.866  0.00  0.00     0.017 A 
ATOM     28  C   UNL d   1     -35.437 -26.733 -24.642  0.00  0.00     0.037 A 
ATOM     29  C   UNL d   1     -36.409 -26.499 -24.617  0.00  0.00     0.065 A 
ATOM     30  C   UNL d   1     -36.791 -26.037 -23.817  0.00  0.00     0.037 A 
ATOM     31  C   UNL d   1     -36.202 -25.809 -23.042  0.00  0.00     0.017 A 
BRANCH  29  32
ATOM     32  O   UNL d   1     -36.998 -26.727 -25.392  0.00  0.00    -0.361 OA
ATOM     33  H   UNL d   1     -36.878 -27.228 -25.736  0.00  0.00     0.217 HD
ENDBRANCH  29  32
ENDBRANCH   4  26
BRANCH   8  34
ATOM     34  O   UNL d   1     -32.466 -25.875 -19.372  0.00  0.00    -0.360 OA
ATOM     35  H   UNL d   1     -32.840 -26.220 -19.017  0.00  0.00     0.217 HD
ENDBRANCH   8  34
BRANCH  11  36
ATOM     36  O   UNL d   1     -32.835 -22.427 -20.086  0.00  0.00    -0.361 OA
ATOM     37  H   UNL d   1     -32.601 -22.057 -20.525  0.00  0.00     0.217 HD
ENDBRANCH  11  36
TORSDOF 9
ENDMDL
MODEL 2
REMARK VINA RESULT:    -8.932      2.755      6.223
REMARK INTER + INTRA:           0.380
REMARK INTER:                 -12.031
REMARK INTRA:                  12.411
REMARK UNBOUND:                12.445
REMARK  9 active torsions:
REMARK  status: ('A' for Active; 'I' for Inactive)
REMARK    1  A    between atoms: C_15  and  O_2 
REMARK    2  A    between atoms: O_2  and  C_17 
REMARK    3  A    between atoms: C_11  and  O_3 
REMARK    4  A    between atoms: C_12  and  O_4 
REMARK    5  A    between atoms: C_13  and  O_5 
REMARK    6  A    between atoms: O_8  and  C_23 
REMARK    7  A    between atoms: O_9  and  C_28 
REMARK    8  A    between atoms: O_10  and  C_31 
REMARK    9  A    between atoms: C_18  and  C_22 
ROOT
ATOM      1  O   UNL d   1     -36.990 -26.838 -21.239  0.00  0.00    -0.306 OA
ATOM      2  O   UNL d   1     -39.652 -26.768 -22.619  0.00  0.00    -0.284 OA
ATOM      3  C   UNL d   1     -38.230 -25.952 -22.060  0.00  0.00     0.157 A 
ATOM      4  C   UNL d   1     -37.343 -25.975 -21.600  0.00  0.00     0.123 A 
ATOM      5  C   UNL d   1     -38.764 -26.791 -22.159  0.00  0.00     0.223 A 
ATOM      6  C   UNL d   1     -38.411 -27.654 -21.798  0.00  0.00     0.084 A 
ATOM      7  C   UNL d   1     -37.524 -27.678 -21.337  0.00  0.00     0.096 A 
ATOM      8  C   UNL d   1     -38.979 -28.521 -21.908  0.00  0.00     0.085 A 
ATOM      9  C   UNL d   1     -37.142 -28.569 -20.956  0.00  0.00     0.075 A 
ATOM     10  C   UNL d   1     -38.617 -29.424 -21.534  0.00  0.00     0.074 A 
ATOM     11  C   UNL d   1     -37.693 -29.448 -21.055  0.00  0.00     0.071 A 
ENDROOT
BRANCH   3  12
ATOM     12  O   UNL d   1     -38.584 -25.089 -22.422  0.00  0.00    -0.311 OA
BRANCH  12  13
ATOM     13  C   UNL d   1     -38.656 -24.953 -23.410  0.00  0.00     0.298 A 
ATOM     14  O   UNL d   1     -38.047 -25.448 -24.028  0.00  0.00    -0.351 OA
ATOM     15  C   UNL d   1     -38.119 -25.312 -25.017  0.00  0.00     0.152 A 
ATOM     16  C   UNL d   1     -38.801 -24.681 -25.386  0.00  0.00     0.178 A 
ATOM     17  C   UNL d   1     -37.509 -25.807 -25.635  0.00  0.00     0.042 C 
ATOM     18  C   UNL d   1     -39.411 -24.186 -24.767  0.00  0.00     0.183 A 
ATOM     19  C   UNL d   1     -39.339 -24.322 -23.779  0.00  0.00     0.205 A 
BRANCH  16  20
ATOM     20  O   UNL d   1     -38.874 -24.545 -26.374  0.00  0.00    -0.390 OA
ATOM     21  H   UNL d   1     -39.342 -24.212 -26.607  0.00  0.00     0.210 HD
ENDBRANCH  16  20
BRANCH  18  22
ATOM     22  O   UNL d   1     -40.093 -23.555 -25.136  0.00  0.00    -0.390 OA
ATOM     23  H   UNL d   1     -40.010 -23.300 -25.695  0.00  0.00     0.210 HD
ENDBRANCH  18  22
BRANCH  19  24
ATOM     24  O   UNL d   1     -39.949 -23.827 -23.160  0.00  0.00    -0.388 OA
ATOM     25  H   UNL d   1     -40.372 -24.136 -22.829  0.00  0.00     0.210 HD
ENDBRANCH  19  24
ENDBRANCH  12  13
ENDBRANCH   3  12
BRANCH   4  26
ATOM     26  C   UNL d   1     -36.809 -25.135 -21.501  0.00  0.00     0.001 A 
ATOM     27  C   UNL d   1     -37.092 -24.437 -20.843  0.00  0.00     0.017 A 
ATOM     28  C   UNL d   1     -36.558 -23.598 -20.745  0.00  0.00     0.037 A 
ATOM     29  C   UNL d   1     -35.741 -23.456 -21.303  0.00  0.00     0.065 A 
ATOM     30  C   UNL d   1     -35.458 -24.154 -21.961  0.00  0.00     0.037 A 
ATOM     31  C   UNL d   1     -35.992 -24.994 -22.060  0.00  0.00     0.017 A 
BRANCH  29  32
ATOM     32  O   UNL d   1     -35.207 -22.616 -21.204  0.00  0.00    -0.361 OA
ATOM     33  H   UNL d   1     -35.327 -22.226 -20.738  0.00  0.00     0.217 HD
ENDBRANCH  29  32
ENDBRANCH   4  26
BRANCH   8  34
ATOM     34  O   UNL d   1     -39.865 -28.486 -22.370  0.00  0.00    -0.360 OA
ATOM     35  H   UNL d   1     -39.896 -28.333 -22.971  0.00  0.00     0.217 HD
ENDBRANCH   8  34
BRANCH  11  36
ATOM     36  O   UNL d   1     -37.336 -30.309 -20.692  0.00  0.00    -0.361 OA
ATOM     37  H   UNL d   1     -36.738 -30.354 -20.534  0.00  0.00     0.217 HD
ENDBRANCH  11  36
TORSDOF 9
ENDMDL
MODEL 3
REMARK VINA RESULT:    -8.915      1.542      4.717
REMARK INTER + INTRA:           0.403
REMARK INTER:                 -11.990
REMARK INTRA:                  12.393
REMARK UNBOUND:                12.445
REMARK  9 active torsions:
REMARK  status: ('A' for Active; 'I' for Inactive)
REMARK    1  A    between atoms: C_15  and  O_2 
REMARK    2  A    between atoms: O_2  and  C_17 
REMARK    3  A    between atoms: C_11  and  O_3 
REMARK    4  A    between atoms: C_12  and  O_4 
REMARK    5  A    between atoms: C_13  and  O_5 
REMARK    6  A    between atoms: O_8  and  C_23 
REMARK    7  A    between atoms: O_9  and  C_28 
REMARK    8  A    between atoms: O_10  and  C_31 
REMARK    9  A    between atoms: C_18  and  C_22 
ROOT
ATOM      1  O   UNL d   1     -36.542 -28.430 -22.692  0.00  0.00    -0.306 OA
ATOM      2  O   UNL d   1     -36.480 -26.532 -20.369  0.00  0.00    -0.284 OA
ATOM      3  C   UNL d   1     -36.496 -26.811 -22.079  0.00  0.00     0.157 A 
ATOM      4  C   UNL d   1     -36.517 -27.443 -22.853  0.00  0.00     0.123 A 
ATOM      5  C   UNL d   1     -36.501 -27.164 -21.143  0.00  0.00     0.223 A 
ATOM      6  C   UNL d   1     -36.526 -28.151 -20.982  0.00  0.00     0.084 A 
ATOM      7  C   UNL d   1     -36.546 -28.784 -21.756  0.00  0.00     0.096 A 
ATOM      8  C   UNL d   1     -36.530 -28.505 -20.002  0.00  0.00     0.085 A 
ATOM      9  C   UNL d   1     -36.573 -29.814 -21.604  0.00  0.00     0.075 A 
ATOM     10  C   UNL d   1     -36.556 -29.531 -19.827  0.00  0.00     0.074 A 
ATOM     11  C   UNL d   1     -36.577 -30.191 -20.633  0.00  0.00     0.071 A 
ENDROOT
BRANCH   3  12
ATOM     12  O   UNL d   1     -36.471 -25.824 -22.240  0.00  0.00    -0.311 OA
BRANCH  12  13
ATOM     13  C   UNL d   1     -35.650 -25.301 -22.011  0.00  0.00     0.298 A 
ATOM     14  O   UNL d   1     -34.758 -25.752 -21.996  0.00  0.00    -0.351 OA
ATOM     15  C   UNL d   1     -33.937 -25.228 -21.768  0.00  0.00     0.152 A 
ATOM     16  C   UNL d   1     -34.008 -24.254 -21.554  0.00  0.00     0.178 A 
ATOM     17  C   UNL d   1     -33.044 -25.679 -21.753  0.00  0.00     0.042 C 
ATOM     18  C   UNL d   1     -34.901 -23.803 -21.568  0.00  0.00     0.183 A 
ATOM     19  C   UNL d   1     -35.722 -24.326 -21.797  0.00  0.00     0.205 A 
BRANCH  16  20
ATOM     20  O   UNL d   1     -33.187 -23.731 -21.325  0.00  0.00    -0.390 OA
ATOM     21  H   UNL d   1     -33.127 -23.479 -20.762  0.00  0.00     0.210 HD
ENDBRANCH  16  20
BRANCH  18  22
ATOM     22  O   UNL d   1     -34.972 -22.829 -21.354  0.00  0.00    -0.390 OA
ATOM     23  H   UNL d   1     -35.330 -22.640 -20.884  0.00  0.00     0.210 HD
ENDBRANCH  18  22
BRANCH  19  24
ATOM     24  O   UNL d   1     -36.614 -23.876 -21.812  0.00  0.00    -0.388 OA
ATOM     25  H   UNL d   1     -36.760 -23.492 -22.277  0.00  0.00     0.210 HD
ENDBRANCH  19  24
ENDBRANCH  12  13
ENDBRANCH   3  12
BRANCH   4  26
ATOM     26  C   UNL d   1     -36.512 -27.089 -23.788  0.00  0.00     0.001 A 
ATOM     27  C   UNL d   1     -35.684 -27.158 -24.345  0.00  0.00     0.017 A 
ATOM     28  C   UNL d   1     -35.680 -26.804 -25.280  0.00  0.00     0.037 A 
ATOM     29  C   UNL d   1     -36.503 -26.382 -25.658  0.00  0.00     0.065 A 
ATOM     30  C   UNL d   1     -37.331 -26.313 -25.102  0.00  0.00     0.037 A 
ATOM     31  C   UNL d   1     -37.336 -26.667 -24.167  0.00  0.00     0.017 A 
BRANCH  29  32
ATOM     32  O   UNL d   1     -36.499 -26.028 -26.594  0.00  0.00    -0.361 OA
ATOM     33  H   UNL d   1     -36.791 -26.338 -27.044  0.00  0.00     0.217 HD
ENDBRANCH  29  32
ENDBRANCH   4  26
BRANCH   8  34
ATOM     34  O   UNL d   1     -36.509 -27.863 -19.236  0.00  0.00    -0.360 OA
ATOM     35  H   UNL d   1     -36.817 -27.325 -19.273  0.00  0.00     0.217 HD
ENDBRANCH   8  34
BRANCH  11  36
ATOM     36  O   UNL d   1     -36.603 -31.178 -20.476  0.00  0.00    -0.361 OA
ATOM     37  H   UNL d   1     -36.122 -31.461 -20.205  0.00  0.00     0.217 HD
ENDBRANCH  11  36
TORSDOF 9
ENDMDL
MODEL 4
REMARK VINA RESULT:    -8.895      2.067      4.711
REMARK INTER + INTRA:           0.430
REMARK INTER:                 -12.038
REMARK INTRA:                  12.468
REMARK UNBOUND:                12.445
REMARK  9 active torsions:
REMARK  status: ('A' for Active; 'I' for Inactive)
REMARK    1  A    between atoms: C_15  and  O_2 
REMARK    2  A    between atoms: O_2  and  C_17 
REMARK    3  A    between atoms: C_11  and  O_3 
REMARK    4  A    between atoms: C_12  and  O_4 
REMARK    5  A    between atoms: C_13  and  O_5 
REMARK    6  A    between atoms: O_8  and  C_23 
REMARK    7  A    between atoms: O_9  and  C_28 
REMARK    8  A    between atoms: O_10  and  C_31 
REMARK    9  A    between atoms: C_18  and  C_22 
ROOT
ATOM      1  O   UNL d   1     -35.864 -27.169 -21.216  0.00  0.00    -0.306 OA
ATOM      2  O   UNL d   1     -36.241 -24.420 -22.356  0.00  0.00    -0.284 OA
ATOM      3  C   UNL d   1     -36.872 -25.989 -21.985  0.00  0.00     0.157 A 
ATOM      4  C   UNL d   1     -36.746 -26.906 -21.605  0.00  0.00     0.123 A 
ATOM      5  C   UNL d   1     -36.115 -25.336 -21.976  0.00  0.00     0.223 A 
ATOM      6  C   UNL d   1     -35.232 -25.599 -21.587  0.00  0.00     0.084 A 
ATOM      7  C   UNL d   1     -35.107 -26.515 -21.206  0.00  0.00     0.096 A 
ATOM      8  C   UNL d   1     -34.453 -24.908 -21.584  0.00  0.00     0.085 A 
ATOM      9  C   UNL d   1     -34.193 -26.804 -20.797  0.00  0.00     0.075 A 
ATOM     10  C   UNL d   1     -33.530 -25.175 -21.180  0.00  0.00     0.074 A 
ATOM     11  C   UNL d   1     -33.399 -26.129 -20.784  0.00  0.00     0.071 A 
ENDROOT
BRANCH   3  12
ATOM     12  O   UNL d   1     -37.755 -25.726 -22.375  0.00  0.00    -0.311 OA
BRANCH  12  13
ATOM     13  C   UNL d   1     -37.847 -25.595 -23.362  0.00  0.00     0.298 A 
ATOM     14  O   UNL d   1     -37.150 -25.958 -23.981  0.00  0.00    -0.351 OA
ATOM     15  C   UNL d   1     -37.242 -25.827 -24.968  0.00  0.00     0.152 A 
ATOM     16  C   UNL d   1     -38.031 -25.333 -25.336  0.00  0.00     0.178 A 
ATOM     17  C   UNL d   1     -36.546 -26.189 -25.588  0.00  0.00     0.042 C 
ATOM     18  C   UNL d   1     -38.727 -24.971 -24.716  0.00  0.00     0.183 A 
ATOM     19  C   UNL d   1     -38.635 -25.102 -23.729  0.00  0.00     0.205 A 
BRANCH  16  20
ATOM     20  O   UNL d   1     -38.123 -25.202 -26.323  0.00  0.00    -0.390 OA
ATOM     21  H   UNL d   1     -37.770 -25.530 -26.713  0.00  0.00     0.210 HD
ENDBRANCH  16  20
BRANCH  18  22
ATOM     22  O   UNL d   1     -39.515 -24.478 -25.084  0.00  0.00    -0.390 OA
ATOM     23  H   UNL d   1     -40.011 -24.373 -24.726  0.00  0.00     0.210 HD
ENDBRANCH  18  22
BRANCH  19  24
ATOM     24  O   UNL d   1     -39.331 -24.740 -23.110  0.00  0.00    -0.388 OA
ATOM     25  H   UNL d   1     -39.243 -24.194 -22.829  0.00  0.00     0.210 HD
ENDBRANCH  19  24
ENDBRANCH  12  13
ENDBRANCH   3  12
BRANCH   4  26
ATOM     26  C   UNL d   1     -37.503 -27.559 -21.614  0.00  0.00     0.001 A 
ATOM     27  C   UNL d   1     -38.267 -27.448 -20.978  0.00  0.00     0.017 A 
ATOM     28  C   UNL d   1     -39.024 -28.102 -20.987  0.00  0.00     0.037 A 
ATOM     29  C   UNL d   1     -39.018 -28.866 -21.633  0.00  0.00     0.065 A 
ATOM     30  C   UNL d   1     -38.254 -28.976 -22.269  0.00  0.00     0.037 A 
ATOM     31  C   UNL d   1     -37.497 -28.323 -22.259  0.00  0.00     0.017 A 
BRANCH  29  32
ATOM     32  O   UNL d   1     -39.775 -29.519 -21.642  0.00  0.00    -0.361 OA
ATOM     33  H   UNL d   1     -39.842 -29.909 -22.119  0.00  0.00     0.217 HD
ENDBRANCH  29  32
ENDBRANCH   4  26
BRANCH   8  34
ATOM     34  O   UNL d   1     -34.590 -23.994 -21.967  0.00  0.00    -0.360 OA
ATOM     35  H   UNL d   1     -34.275 -23.819 -22.472  0.00  0.00     0.217 HD
ENDBRANCH   8  34
BRANCH  11  36
ATOM     36  O   UNL d   1     -32.518 -26.396 -20.394  0.00  0.00    -0.361 OA
ATOM     37  H   UNL d   1     -32.444 -26.411 -19.778  0.00  0.00     0.217 HD
ENDBRANCH  11  36
TORSDOF 9
ENDMDL
MODEL 5
REMARK VINA RESULT:    -8.884      2.637      4.920
REMARK INTER + INTRA:           0.445
REMARK INTER:                 -12.171
REMARK INTRA:                  12.616
REMARK UNBOUND:                12.445
REMARK  9 active torsions:
REMARK  status: ('A' for Active; 'I' for Inactive)
REMARK    1  A    between atoms: C_15  and  O_2 
REMARK    2  A    between atoms: O_2  and  C_17 
REMARK    3  A    between atoms: C_11  and  O_3 
REMARK    4  A    between atoms: C_12  and  O_4 
REMARK    5  A    between atoms: C_13  and  O_5 
REMARK    6  A    between atoms: O_8  and  C_23 
REMARK    7  A    between atoms: O_9  and  C_28 
REMARK    8  A    between atoms: O_10  and  C_31 
REMARK    9  A    between atoms: C_18  and  C_22 
ROOT
ATOM      1  O   UNL d   1     -36.946 -26.167 -20.762  0.00  0.00    -0.306 OA
ATOM      2  O   UNL d   1     -36.255 -24.641 -23.250  0.00  0.00    -0.284 OA
ATOM      3  C   UNL d   1     -37.150 -25.896 -22.460  0.00  0.00     0.157 A 
ATOM      4  C   UNL d   1     -37.380 -26.405 -21.631  0.00  0.00     0.123 A 
ATOM      5  C   UNL d   1     -36.485 -25.150 -22.421  0.00  0.00     0.223 A 
ATOM      6  C   UNL d   1     -36.050 -24.913 -21.552  0.00  0.00     0.084 A 
ATOM      7  C   UNL d   1     -36.281 -25.422 -20.723  0.00  0.00     0.096 A 
ATOM      8  C   UNL d   1     -35.360 -24.134 -21.527  0.00  0.00     0.085 A 
ATOM      9  C   UNL d   1     -35.836 -25.186 -19.810  0.00  0.00     0.075 A 
ATOM     10  C   UNL d   1     -34.903 -23.881 -20.625  0.00  0.00     0.074 A 
ATOM     11  C   UNL d   1     -35.142 -24.411 -19.761  0.00  0.00     0.071 A 
ENDROOT
BRANCH   3  12
ATOM     12  O   UNL d   1     -37.585 -26.133 -23.329  0.00  0.00    -0.311 OA
BRANCH  12  13
ATOM     13  C   UNL d   1     -38.215 -25.490 -23.765  0.00  0.00     0.298 A 
ATOM     14  O   UNL d   1     -38.850 -24.957 -23.207  0.00  0.00    -0.351 OA
ATOM     15  C   UNL d   1     -39.480 -24.314 -23.642  0.00  0.00     0.152 A 
ATOM     16  C   UNL d   1     -39.474 -24.204 -24.636  0.00  0.00     0.178 A 
ATOM     17  C   UNL d   1     -40.115 -23.780 -23.084  0.00  0.00     0.042 C 
ATOM     18  C   UNL d   1     -38.839 -24.738 -25.195  0.00  0.00     0.183 A 
ATOM     19  C   UNL d   1     -38.209 -25.381 -24.759  0.00  0.00     0.205 A 
BRANCH  16  20
ATOM     20  O   UNL d   1     -40.104 -23.561 -25.072  0.00  0.00    -0.390 OA
ATOM     21  H   UNL d   1     -39.902 -23.003 -25.252  0.00  0.00     0.210 HD
ENDBRANCH  16  20
BRANCH  18  22
ATOM     22  O   UNL d   1     -38.833 -24.628 -26.189  0.00  0.00    -0.390 OA
ATOM     23  H   UNL d   1     -39.304 -24.340 -26.471  0.00  0.00     0.210 HD
ENDBRANCH  18  22
BRANCH  19  24
ATOM     24  O   UNL d   1     -37.574 -25.914 -25.317  0.00  0.00    -0.388 OA
ATOM     25  H   UNL d   1     -37.696 -26.509 -25.443  0.00  0.00     0.210 HD
ENDBRANCH  19  24
ENDBRANCH  12  13
ENDBRANCH   3  12
BRANCH   4  26
ATOM     26  C   UNL d   1     -38.045 -27.150 -21.670  0.00  0.00     0.001 A 
ATOM     27  C   UNL d   1     -38.944 -27.041 -21.246  0.00  0.00     0.017 A 
ATOM     28  C   UNL d   1     -39.609 -27.787 -21.285  0.00  0.00     0.037 A 
ATOM     29  C   UNL d   1     -39.375 -28.642 -21.748  0.00  0.00     0.065 A 
ATOM     30  C   UNL d   1     -38.477 -28.751 -22.172  0.00  0.00     0.037 A 
ATOM     31  C   UNL d   1     -37.812 -28.005 -22.133  0.00  0.00     0.017 A 
BRANCH  29  32
ATOM     32  O   UNL d   1     -40.041 -29.388 -21.787  0.00  0.00    -0.361 OA
ATOM     33  H   UNL d   1     -40.567 -29.317 -22.108  0.00  0.00     0.217 HD
ENDBRANCH  29  32
ENDBRANCH   4  26
BRANCH   8  34
ATOM     34  O   UNL d   1     -35.137 -23.632 -22.362  0.00  0.00    -0.360 OA
ATOM     35  H   UNL d   1     -35.556 -23.586 -22.818  0.00  0.00     0.217 HD
ENDBRANCH   8  34
BRANCH  11  36
ATOM     36  O   UNL d   1     -34.710 -24.176 -18.890  0.00  0.00    -0.361 OA
ATOM     37  H   UNL d   1     -34.093 -24.124 -18.855  0.00  0.00     0.217 HD
ENDBRANCH  11  36
TORSDOF 9
ENDMDL
