MODEL 1
REMARK VINA RESULT:    -5.576      0.000      0.000
REMARK INTER + INTRA:          -5.620
REMARK INTER:                  -6.448
REMARK INTRA:                   0.828
REMARK UNBOUND:                 0.934
REMARK  3 active torsions:
REMARK  status: ('A' for Active; 'I' for Inactive)
REMARK    1  A    between atoms: C_2  and  C_7 
REMARK    2  A    between atoms: C_7  and  C_9 
REMARK    3  A    between atoms: C_9  and  C_10 
ROOT
ATOM      1  C   UNL d   1     -16.573 -26.994 -43.584  0.00  0.00    -0.036 A 
ATOM      2  C   UNL d   1     -15.907 -26.781 -44.298  0.00  0.00     0.011 A 
ATOM      3  C   UNL d   1     -16.732 -27.945 -43.316  0.00  0.00     0.011 A 
ATOM      4  C   UNL d   1     -15.399 -27.517 -44.745  0.00  0.00     0.001 A 
ATOM      5  C   UNL d   1     -16.224 -28.681 -43.763  0.00  0.00     0.001 A 
ATOM      6  C   UNL d   1     -15.558 -28.468 -44.477  0.00  0.00     0.000 A 
ENDROOT
BRANCH   1   7
ATOM      7  C   UNL d   1     -17.081 -26.258 -43.137  0.00  0.00     0.014 C 
BRANCH   7   8
ATOM      8  C   UNL d   1     -16.929 -26.062 -42.168  0.00  0.00     0.042 C 
BRANCH   8   9
ATOM      9  C   UNL d   1     -17.426 -25.316 -41.725  0.00  0.00     0.258 C 
ATOM     10  O   UNL d   1     -17.106 -24.952 -40.850  0.00  0.00    -0.302 OA
ENDBRANCH   8   9
ENDBRANCH   7   8
ENDBRANCH   1   7
TORSDOF 3
ENDMDL
MODEL 2
REMARK VINA RESULT:    -5.534     30.841     31.308
REMARK INTER + INTRA:          -5.570
REMARK INTER:                  -6.452
REMARK INTRA:                   0.882
REMARK UNBOUND:                 0.934
REMARK  3 active torsions:
REMARK  status: ('A' for Active; 'I' for Inactive)
REMARK    1  A    between atoms: C_2  and  C_7 
REMARK    2  A    between atoms: C_7  and  C_9 
REMARK    3  A    between atoms: C_9  and  C_10 
ROOT
ATOM      1  C   UNL d   1     -45.598 -35.351 -49.005  0.00  0.00    -0.036 A 
ATOM      2  C   UNL d   1     -45.644 -35.878 -48.157  0.00  0.00     0.011 A 
ATOM      3  C   UNL d   1     -44.818 -34.751 -49.180  0.00  0.00     0.011 A 
ATOM      4  C   UNL d   1     -44.908 -35.805 -47.483  0.00  0.00     0.001 A 
ATOM      5  C   UNL d   1     -44.083 -34.678 -48.507  0.00  0.00     0.001 A 
ATOM      6  C   UNL d   1     -44.128 -35.205 -47.658  0.00  0.00     0.000 A 
ENDROOT
BRANCH   1   7
ATOM      7  C   UNL d   1     -46.334 -35.425 -49.679  0.00  0.00     0.014 C 
BRANCH   7   8
ATOM      8  C   UNL d   1     -47.288 -35.389 -49.383  0.00  0.00     0.042 C 
BRANCH   8   9
ATOM      9  C   UNL d   1     -48.022 -35.382 -50.062  0.00  0.00     0.258 C 
ATOM     10  O   UNL d   1     -48.976 -35.442 -49.768  0.00  0.00    -0.302 OA
ENDBRANCH   8   9
ENDBRANCH   7   8
ENDBRANCH   1   7
TORSDOF 3
ENDMDL
MODEL 3
REMARK VINA RESULT:    -5.420      2.863      4.163
REMARK INTER + INTRA:          -5.436
REMARK INTER:                  -6.288
REMARK INTRA:                   0.852
REMARK UNBOUND:                 0.934
REMARK  3 active torsions:
REMARK  status: ('A' for Active; 'I' for Inactive)
REMARK    1  A    between atoms: C_2  and  C_7 
REMARK    2  A    between atoms: C_7  and  C_9 
REMARK    3  A    between atoms: C_9  and  C_10 
ROOT
ATOM      1  C   UNL d   1     -15.548 -28.261 -44.530  0.00  0.00    -0.036 A 
ATOM      2  C   UNL d   1     -15.435 -27.269 -44.472  0.00  0.00     0.011 A 
ATOM      3  C   UNL d   1     -16.182 -28.729 -43.914  0.00  0.00     0.011 A 
ATOM      4  C   UNL d   1     -15.956 -26.745 -43.798  0.00  0.00     0.001 A 
ATOM      5  C   UNL d   1     -16.703 -28.205 -43.240  0.00  0.00     0.001 A 
ATOM      6  C   UNL d   1     -16.590 -27.213 -43.182  0.00  0.00     0.000 A 
ENDROOT
BRANCH   1   7
ATOM      7  C   UNL d   1     -15.027 -28.785 -45.204  0.00  0.00     0.014 C 
BRANCH   7   8
ATOM      8  C   UNL d   1     -15.400 -28.932 -46.120  0.00  0.00     0.042 C 
BRANCH   8   9
ATOM      9  C   UNL d   1     -14.992 -29.619 -46.721  0.00  0.00     0.258 C 
ATOM     10  O   UNL d   1     -14.473 -29.333 -47.527  0.00  0.00    -0.302 OA
ENDBRANCH   8   9
ENDBRANCH   7   8
ENDBRANCH   1   7
TORSDOF 3
ENDMDL
MODEL 4
REMARK VINA RESULT:    -5.406     25.767     27.115
REMARK INTER + INTRA:          -5.421
REMARK INTER:                  -6.426
REMARK INTRA:                   1.005
REMARK UNBOUND:                 0.934
REMARK  3 active torsions:
REMARK  status: ('A' for Active; 'I' for Inactive)
REMARK    1  A    between atoms: C_2  and  C_7 
REMARK    2  A    between atoms: C_7  and  C_9 
REMARK    3  A    between atoms: C_9  and  C_10 
ROOT
ATOM      1  C   UNL d   1     -19.276 -23.312 -16.727  0.00  0.00    -0.036 A 
ATOM      2  C   UNL d   1     -18.306 -23.531 -16.834  0.00  0.00     0.011 A 
ATOM      3  C   UNL d   1     -19.957 -23.765 -17.303  0.00  0.00     0.011 A 
ATOM      4  C   UNL d   1     -18.017 -24.203 -17.516  0.00  0.00     0.001 A 
ATOM      5  C   UNL d   1     -19.668 -24.437 -17.985  0.00  0.00     0.001 A 
ATOM      6  C   UNL d   1     -18.698 -24.655 -18.092  0.00  0.00     0.000 A 
ENDROOT
BRANCH   1   7
ATOM      7  C   UNL d   1     -19.565 -22.641 -16.045  0.00  0.00     0.014 C 
BRANCH   7   8
ATOM      8  C   UNL d   1     -18.906 -22.290 -15.379  0.00  0.00     0.042 C 
BRANCH   8   9
ATOM      9  C   UNL d   1     -19.220 -21.727 -14.615  0.00  0.00     0.258 C 
ATOM     10  O   UNL d   1     -18.719 -20.899 -14.364  0.00  0.00    -0.302 OA
ENDBRANCH   8   9
ENDBRANCH   7   8
ENDBRANCH   1   7
TORSDOF 3
ENDMDL
MODEL 5
REMARK VINA RESULT:    -5.261     25.430     26.197
REMARK INTER + INTRA:          -5.250
REMARK INTER:                  -6.058
REMARK INTRA:                   0.808
REMARK UNBOUND:                 0.934
REMARK  3 active torsions:
REMARK  status: ('A' for Active; 'I' for Inactive)
REMARK    1  A    between atoms: C_2  and  C_7 
REMARK    2  A    between atoms: C_7  and  C_9 
REMARK    3  A    between atoms: C_9  and  C_10 
ROOT
ATOM      1  C   UNL d   1     -18.225 -24.203 -17.517  0.00  0.00    -0.036 A 
ATOM      2  C   UNL d   1     -19.149 -24.383 -17.855  0.00  0.00     0.011 A 
ATOM      3  C   UNL d   1     -18.082 -23.539 -16.782  0.00  0.00     0.011 A 
ATOM      4  C   UNL d   1     -19.929 -23.900 -17.458  0.00  0.00     0.001 A 
ATOM      5  C   UNL d   1     -18.862 -23.057 -16.385  0.00  0.00     0.001 A 
ATOM      6  C   UNL d   1     -19.786 -23.237 -16.723  0.00  0.00     0.000 A 
ENDROOT
BRANCH   1   7
ATOM      7  C   UNL d   1     -17.444 -24.685 -17.914  0.00  0.00     0.014 C 
BRANCH   7   8
ATOM      8  C   UNL d   1     -17.174 -25.579 -17.556  0.00  0.00     0.042 C 
BRANCH   8   9
ATOM      9  C   UNL d   1     -16.314 -25.996 -17.850  0.00  0.00     0.258 C 
ATOM     10  O   UNL d   1     -16.219 -26.992 -17.860  0.00  0.00    -0.302 OA
ENDBRANCH   8   9
ENDBRANCH   7   8
ENDBRANCH   1   7
TORSDOF 3
ENDMDL
