MODEL 1
REMARK VINA RESULT:    -8.803      0.000      0.000
REMARK INTER + INTRA:          -8.592
REMARK INTER:                  -9.639
REMARK INTRA:                   1.047
REMARK UNBOUND:                 1.240
REMARK  3 active torsions:
REMARK  status: ('A' for Active; 'I' for Inactive)
REMARK    1  A    between atoms: O_2  and  C_10 
REMARK    2  A    between atoms: O_4  and  C_13 
REMARK    3  A    between atoms: C_7  and  C_9 
ROOT
ATOM      1  O   UNL d   1     -25.002 -26.571 -37.462  0.00  0.00    -0.309 OA
ATOM      2  O   UNL d   1     -22.581 -27.016 -35.748  0.00  0.00    -0.287 OA
ATOM      3  C   UNL d   1     -24.219 -27.400 -36.159  0.00  0.00     0.081 A 
ATOM      4  C   UNL d   1     -25.026 -27.251 -36.730  0.00  0.00     0.095 A 
ATOM      5  C   UNL d   1     -24.171 -26.039 -37.624  0.00  0.00     0.090 A 
ATOM      6  C   UNL d   1     -23.388 -26.868 -36.320  0.00  0.00     0.190 A 
ATOM      7  C   UNL d   1     -24.230 -28.105 -35.392  0.00  0.00     0.085 A 
ATOM      8  C   UNL d   1     -23.364 -26.187 -37.052  0.00  0.00     0.094 A 
ATOM      9  C   UNL d   1     -25.900 -27.798 -36.574  0.00  0.00     0.075 A 
ATOM     10  C   UNL d   1     -25.932 -28.508 -35.813  0.00  0.00     0.071 A 
ATOM     11  C   UNL d   1     -25.092 -28.663 -35.219  0.00  0.00     0.074 A 
ENDROOT
BRANCH   5  12
ATOM     12  C   UNL d   1     -24.147 -25.359 -38.356  0.00  0.00    -0.002 A 
ATOM     13  C   UNL d   1     -24.156 -25.652 -39.312  0.00  0.00     0.014 A 
ATOM     14  C   UNL d   1     -24.132 -24.972 -40.044  0.00  0.00     0.001 A 
ATOM     15  C   UNL d   1     -24.099 -23.998 -39.821  0.00  0.00     0.000 A 
ATOM     16  C   UNL d   1     -24.090 -23.704 -38.865  0.00  0.00     0.001 A 
ATOM     17  C   UNL d   1     -24.114 -24.385 -38.133  0.00  0.00     0.014 A 
ENDBRANCH   5  12
BRANCH   7  18
ATOM     18  O   UNL d   1     -23.417 -28.245 -34.827  0.00  0.00    -0.360 OA
ATOM     19  H   UNL d   1     -23.175 -27.771 -34.510  0.00  0.00     0.217 HD
ENDBRANCH   7  18
BRANCH  10  20
ATOM     20  O   UNL d   1     -26.766 -29.038 -35.656  0.00  0.00    -0.361 OA
ATOM     21  H   UNL d   1     -27.236 -28.788 -35.339  0.00  0.00     0.217 HD
ENDBRANCH  10  20
TORSDOF 3
ENDMDL
MODEL 2
REMARK VINA RESULT:    -8.383     17.675     19.028
REMARK INTER + INTRA:          -8.124
REMARK INTER:                  -9.212
REMARK INTRA:                   1.088
REMARK UNBOUND:                 1.240
REMARK  3 active torsions:
REMARK  status: ('A' for Active; 'I' for Inactive)
REMARK    1  A    between atoms: O_2  and  C_10 
REMARK    2  A    between atoms: O_4  and  C_13 
REMARK    3  A    between atoms: C_7  and  C_9 
ROOT
ATOM      1  O   UNL d   1     -34.649 -29.044 -21.427  0.00  0.00    -0.309 OA
ATOM      2  O   UNL d   1     -35.499 -27.530 -23.873  0.00  0.00    -0.287 OA
ATOM      3  C   UNL d   1     -34.614 -27.602 -22.386  0.00  0.00     0.081 A 
ATOM      4  C   UNL d   1     -34.331 -28.106 -21.570  0.00  0.00     0.095 A 
ATOM      5  C   UNL d   1     -35.250 -29.476 -22.099  0.00  0.00     0.090 A 
ATOM      6  C   UNL d   1     -35.215 -28.034 -23.058  0.00  0.00     0.190 A 
ATOM      7  C   UNL d   1     -34.291 -26.625 -22.549  0.00  0.00     0.085 A 
ATOM      8  C   UNL d   1     -35.533 -28.972 -22.914  0.00  0.00     0.094 A 
ATOM      9  C   UNL d   1     -33.705 -27.669 -20.861  0.00  0.00     0.075 A 
ATOM     10  C   UNL d   1     -33.370 -26.693 -21.004  0.00  0.00     0.071 A 
ATOM     11  C   UNL d   1     -33.665 -26.168 -21.853  0.00  0.00     0.074 A 
ENDROOT
BRANCH   5  12
ATOM     12  C   UNL d   1     -35.567 -30.413 -21.955  0.00  0.00    -0.002 A 
ATOM     13  C   UNL d   1     -35.326 -31.129 -22.611  0.00  0.00     0.014 A 
ATOM     14  C   UNL d   1     -35.644 -32.066 -22.467  0.00  0.00     0.001 A 
ATOM     15  C   UNL d   1     -36.203 -32.288 -21.668  0.00  0.00     0.000 A 
ATOM     16  C   UNL d   1     -36.443 -31.572 -21.012  0.00  0.00     0.001 A 
ATOM     17  C   UNL d   1     -36.126 -30.635 -21.156  0.00  0.00     0.014 A 
ENDBRANCH   5  12
BRANCH   7  18
ATOM     18  O   UNL d   1     -34.581 -26.130 -23.368  0.00  0.00    -0.360 OA
ATOM     19  H   UNL d   1     -35.185 -26.047 -23.482  0.00  0.00     0.217 HD
ENDBRANCH   7  18
BRANCH  10  20
ATOM     20  O   UNL d   1     -32.769 -26.264 -20.330  0.00  0.00    -0.361 OA
ATOM     21  H   UNL d   1     -33.002 -26.061 -19.792  0.00  0.00     0.217 HD
ENDBRANCH  10  20
TORSDOF 3
ENDMDL
MODEL 3
REMARK VINA RESULT:    -8.243     17.234     18.835
REMARK INTER + INTRA:          -7.966
REMARK INTER:                  -9.008
REMARK INTRA:                   1.041
REMARK UNBOUND:                 1.240
REMARK  3 active torsions:
REMARK  status: ('A' for Active; 'I' for Inactive)
REMARK    1  A    between atoms: O_2  and  C_10 
REMARK    2  A    between atoms: O_4  and  C_13 
REMARK    3  A    between atoms: C_7  and  C_9 
ROOT
ATOM      1  O   UNL d   1     -35.764 -28.998 -22.950  0.00  0.00    -0.309 OA
ATOM      2  O   UNL d   1     -33.707 -27.712 -21.185  0.00  0.00    -0.287 OA
ATOM      3  C   UNL d   1     -34.778 -27.633 -22.544  0.00  0.00     0.081 A 
ATOM      4  C   UNL d   1     -35.463 -28.061 -23.132  0.00  0.00     0.095 A 
ATOM      5  C   UNL d   1     -35.379 -29.505 -22.180  0.00  0.00     0.090 A 
ATOM      6  C   UNL d   1     -34.393 -28.141 -21.773  0.00  0.00     0.190 A 
ATOM      7  C   UNL d   1     -34.455 -26.659 -22.721  0.00  0.00     0.085 A 
ATOM      8  C   UNL d   1     -34.693 -29.077 -21.591  0.00  0.00     0.094 A 
ATOM      9  C   UNL d   1     -35.874 -27.545 -23.939  0.00  0.00     0.075 A 
ATOM     10  C   UNL d   1     -35.565 -26.570 -24.135  0.00  0.00     0.071 A 
ATOM     11  C   UNL d   1     -34.852 -26.124 -23.522  0.00  0.00     0.074 A 
ENDROOT
BRANCH   5  12
ATOM     12  C   UNL d   1     -35.680 -30.442 -21.998  0.00  0.00    -0.002 A 
ATOM     13  C   UNL d   1     -35.411 -31.182 -22.614  0.00  0.00     0.014 A 
ATOM     14  C   UNL d   1     -35.711 -32.118 -22.432  0.00  0.00     0.001 A 
ATOM     15  C   UNL d   1     -36.281 -32.314 -21.633  0.00  0.00     0.000 A 
ATOM     16  C   UNL d   1     -36.550 -31.574 -21.017  0.00  0.00     0.001 A 
ATOM     17  C   UNL d   1     -36.249 -30.638 -21.199  0.00  0.00     0.014 A 
ENDBRANCH   5  12
BRANCH   7  18
ATOM     18  O   UNL d   1     -33.769 -26.241 -22.126  0.00  0.00    -0.360 OA
ATOM     19  H   UNL d   1     -33.498 -25.708 -22.292  0.00  0.00     0.217 HD
ENDBRANCH   7  18
BRANCH  10  20
ATOM     20  O   UNL d   1     -35.953 -26.065 -24.907  0.00  0.00    -0.361 OA
ATOM     21  H   UNL d   1     -36.050 -26.353 -25.447  0.00  0.00     0.217 HD
ENDBRANCH  10  20
TORSDOF 3
ENDMDL
MODEL 4
REMARK VINA RESULT:    -8.203      8.783     10.347
REMARK INTER + INTRA:          -7.922
REMARK INTER:                  -9.332
REMARK INTRA:                   1.411
REMARK UNBOUND:                 1.240
REMARK  3 active torsions:
REMARK  status: ('A' for Active; 'I' for Inactive)
REMARK    1  A    between atoms: O_2  and  C_10 
REMARK    2  A    between atoms: O_4  and  C_13 
REMARK    3  A    between atoms: C_7  and  C_9 
ROOT
ATOM      1  O   UNL d   1     -16.825 -26.606 -43.054  0.00  0.00    -0.309 OA
ATOM      2  O   UNL d   1     -18.342 -26.257 -45.618  0.00  0.00    -0.287 OA
ATOM      3  C   UNL d   1     -17.218 -27.151 -44.650  0.00  0.00     0.081 A 
ATOM      4  C   UNL d   1     -16.713 -27.267 -43.795  0.00  0.00     0.095 A 
ATOM      5  C   UNL d   1     -17.442 -25.828 -43.167  0.00  0.00     0.090 A 
ATOM      6  C   UNL d   1     -17.836 -26.373 -44.763  0.00  0.00     0.190 A 
ATOM      7  C   UNL d   1     -17.112 -27.832 -45.430  0.00  0.00     0.085 A 
ATOM      8  C   UNL d   1     -17.948 -25.711 -44.022  0.00  0.00     0.094 A 
ATOM      9  C   UNL d   1     -16.065 -28.073 -43.662  0.00  0.00     0.075 A 
ATOM     10  C   UNL d   1     -15.943 -28.766 -44.430  0.00  0.00     0.071 A 
ATOM     11  C   UNL d   1     -16.470 -28.645 -45.319  0.00  0.00     0.074 A 
ENDROOT
BRANCH   5  12
ATOM     12  C   UNL d   1     -17.554 -25.166 -42.426  0.00  0.00    -0.002 A 
ATOM     13  C   UNL d   1     -17.195 -25.370 -41.515  0.00  0.00     0.014 A 
ATOM     14  C   UNL d   1     -17.307 -24.708 -40.774  0.00  0.00     0.001 A 
ATOM     15  C   UNL d   1     -17.778 -23.842 -40.944  0.00  0.00     0.000 A 
ATOM     16  C   UNL d   1     -18.138 -23.639 -41.854  0.00  0.00     0.001 A 
ATOM     17  C   UNL d   1     -18.026 -24.300 -42.596  0.00  0.00     0.014 A 
ENDBRANCH   5  12
BRANCH   7  18
ATOM     18  O   UNL d   1     -17.622 -27.706 -46.281  0.00  0.00    -0.360 OA
ATOM     19  H   UNL d   1     -17.714 -27.136 -46.505  0.00  0.00     0.217 HD
ENDBRANCH   7  18
BRANCH  10  20
ATOM     20  O   UNL d   1     -15.325 -29.543 -44.312  0.00  0.00    -0.361 OA
ATOM     21  H   UNL d   1     -15.431 -30.072 -44.617  0.00  0.00     0.217 HD
ENDBRANCH  10  20
TORSDOF 3
ENDMDL
MODEL 5
REMARK VINA RESULT:    -8.171     20.261     21.221
REMARK INTER + INTRA:          -7.886
REMARK INTER:                  -8.991
REMARK INTRA:                   1.105
REMARK UNBOUND:                 1.240
REMARK  3 active torsions:
REMARK  status: ('A' for Active; 'I' for Inactive)
REMARK    1  A    between atoms: O_2  and  C_10 
REMARK    2  A    between atoms: O_4  and  C_13 
REMARK    3  A    between atoms: C_7  and  C_9 
ROOT
ATOM      1  O   UNL d   1     -16.628 -24.286 -17.837  0.00  0.00    -0.309 OA
ATOM      2  O   UNL d   1     -16.447 -27.264 -17.524  0.00  0.00    -0.287 OA
ATOM      3  C   UNL d   1     -15.694 -25.745 -17.875  0.00  0.00     0.081 A 
ATOM      4  C   UNL d   1     -15.754 -24.752 -17.979  0.00  0.00     0.095 A 
ATOM      5  C   UNL d   1     -17.441 -24.813 -17.590  0.00  0.00     0.090 A 
ATOM      6  C   UNL d   1     -16.507 -26.272 -17.628  0.00  0.00     0.190 A 
ATOM      7  C   UNL d   1     -14.791 -26.243 -18.020  0.00  0.00     0.085 A 
ATOM      8  C   UNL d   1     -17.381 -25.806 -17.486  0.00  0.00     0.094 A 
ATOM      9  C   UNL d   1     -14.916 -24.189 -18.236  0.00  0.00     0.075 A 
ATOM     10  C   UNL d   1     -14.003 -24.667 -18.386  0.00  0.00     0.071 A 
ATOM     11  C   UNL d   1     -13.940 -25.701 -18.278  0.00  0.00     0.074 A 
ENDROOT
BRANCH   5  12
ATOM     12  C   UNL d   1     -18.314 -24.348 -17.447  0.00  0.00    -0.002 A 
ATOM     13  C   UNL d   1     -19.108 -24.593 -18.004  0.00  0.00     0.014 A 
ATOM     14  C   UNL d   1     -19.982 -24.127 -17.861  0.00  0.00     0.001 A 
ATOM     15  C   UNL d   1     -20.061 -23.416 -17.162  0.00  0.00     0.000 A 
ATOM     16  C   UNL d   1     -19.267 -23.171 -16.606  0.00  0.00     0.001 A 
ATOM     17  C   UNL d   1     -18.393 -23.637 -16.749  0.00  0.00     0.014 A 
ENDBRANCH   5  12
BRANCH   7  18
ATOM     18  O   UNL d   1     -14.743 -27.236 -17.913  0.00  0.00    -0.360 OA
ATOM     19  H   UNL d   1     -14.763 -27.488 -17.347  0.00  0.00     0.217 HD
ENDBRANCH   7  18
BRANCH  10  20
ATOM     20  O   UNL d   1     -13.192 -24.136 -18.633  0.00  0.00    -0.361 OA
ATOM     21  H   UNL d   1     -12.669 -24.199 -18.306  0.00  0.00     0.217 HD
ENDBRANCH  10  20
TORSDOF 3
ENDMDL
