MODEL 1
REMARK VINA RESULT:   -11.617      0.000      0.000
REMARK INTER + INTRA:          -6.818
REMARK INTER:                 -15.529
REMARK INTRA:                   8.711
REMARK UNBOUND:                 8.874
REMARK  9 active torsions:
REMARK  status: ('A' for Active; 'I' for Inactive)
REMARK    1  A    between atoms: O_3  and  C_17 
REMARK    2  A    between atoms: O_4  and  C_18 
REMARK    3  A    between atoms: O_5  and  C_19 
REMARK    4  A    between atoms: O_7  and  C_32 
REMARK    5  A    between atoms: O_9  and  C_36 
REMARK    6  A    between atoms: O_10  and  C_40 
REMARK    7  A    between atoms: C_11  and  C_13 
REMARK    8  A    between atoms: C_15  and  C_20 
REMARK    9  A    between atoms: C_22  and  C_29 
ROOT
ATOM      1  O   UNL d   1     -35.251 -27.384 -22.145  0.00  0.00    -0.308 OA
ATOM      2  O   UNL d   1     -33.515 -26.501 -19.773  0.00  0.00    -0.287 OA
ATOM      3  C   UNL d   1     -35.339 -25.701 -22.653  0.00  0.00     0.045 A 
ATOM      4  C   UNL d   1     -35.003 -26.382 -22.003  0.00  0.00     0.107 A 
ATOM      5  C   UNL d   1     -34.437 -26.098 -21.229  0.00  0.00     0.082 A 
ATOM      6  C   UNL d   1     -35.109 -24.736 -22.530  0.00  0.00     0.082 A 
ATOM      7  C   UNL d   1     -34.207 -25.133 -21.105  0.00  0.00     0.085 A 
ATOM      8  C   UNL d   1     -34.543 -24.452 -21.756  0.00  0.00     0.075 A 
ATOM      9  C   UNL d   1     -34.905 -28.099 -21.472  0.00  0.00     0.090 A 
ATOM     10  C   UNL d   1     -34.080 -26.796 -20.544  0.00  0.00     0.190 A 
ATOM     11  C   UNL d   1     -34.315 -27.803 -20.665  0.00  0.00     0.094 A 
ENDROOT
BRANCH   3  12
ATOM     12  C   UNL d   1     -35.905 -25.985 -23.427  0.00  0.00     0.014 A 
ATOM     13  C   UNL d   1     -35.474 -26.272 -24.283  0.00  0.00     0.029 A 
ATOM     14  C   UNL d   1     -36.040 -26.556 -25.057  0.00  0.00    -0.001 A 
ATOM     15  C   UNL d   1     -37.037 -26.553 -24.975  0.00  0.00     0.017 A 
ATOM     16  C   UNL d   1     -37.467 -26.266 -24.120  0.00  0.00     0.038 A 
ATOM     17  C   UNL d   1     -36.901 -25.982 -23.346  0.00  0.00     0.076 A 
BRANCH  14  18
ATOM     18  C   UNL d   1     -35.609 -26.843 -25.912  0.00  0.00     0.090 A 
ATOM     19  O   UNL d   1     -35.715 -26.287 -26.737  0.00  0.00    -0.309 OA
ATOM     20  C   UNL d   1     -35.284 -26.574 -27.592  0.00  0.00     0.095 A 
ATOM     21  C   UNL d   1     -34.748 -27.417 -27.624  0.00  0.00     0.081 A 
ATOM     22  C   UNL d   1     -35.403 -25.984 -28.443  0.00  0.00     0.075 A 
ATOM     23  C   UNL d   1     -34.642 -27.973 -26.799  0.00  0.00     0.190 A 
ATOM     24  C   UNL d   1     -34.293 -27.729 -28.508  0.00  0.00     0.085 A 
ATOM     25  O   UNL d   1     -34.106 -28.817 -26.831  0.00  0.00    -0.287 OA
ATOM     26  C   UNL d   1     -35.073 -27.686 -25.944  0.00  0.00     0.094 A 
ATOM     27  C   UNL d   1     -34.399 -27.155 -29.370  0.00  0.00     0.074 A 
ATOM     28  C   UNL d   1     -34.958 -26.276 -29.338  0.00  0.00     0.071 A 
BRANCH  24  29
ATOM     29  O   UNL d   1     -33.759 -28.574 -28.528  0.00  0.00    -0.360 OA
ATOM     30  H   UNL d   1     -33.142 -28.550 -28.594  0.00  0.00     0.217 HD
ENDBRANCH  24  29
BRANCH  28  31
ATOM     31  O   UNL d   1     -35.065 -25.717 -30.160  0.00  0.00    -0.361 OA
ATOM     32  H   UNL d   1     -35.249 -25.127 -30.112  0.00  0.00     0.217 HD
ENDBRANCH  28  31
ENDBRANCH  14  18
BRANCH  17  33
ATOM     33  O   UNL d   1     -37.332 -25.695 -22.490  0.00  0.00    -0.360 OA
ATOM     34  H   UNL d   1     -37.437 -26.110 -22.041  0.00  0.00     0.217 HD
ENDBRANCH  17  33
ENDBRANCH   3  12
BRANCH   6  35
ATOM     35  O   UNL d   1     -35.445 -24.054 -23.180  0.00  0.00    -0.360 OA
ATOM     36  H   UNL d   1     -35.219 -23.477 -23.168  0.00  0.00     0.217 HD
ENDBRANCH   6  35
BRANCH   9  37
ATOM     37  C   UNL d   1     -35.137 -29.064 -21.599  0.00  0.00    -0.002 A 
ATOM     38  C   UNL d   1     -35.275 -29.427 -22.521  0.00  0.00     0.017 A 
ATOM     39  C   UNL d   1     -35.507 -30.391 -22.649  0.00  0.00     0.037 A 
ATOM     40  C   UNL d   1     -35.602 -30.992 -21.855  0.00  0.00     0.065 A 
ATOM     41  C   UNL d   1     -35.465 -30.629 -20.933  0.00  0.00     0.037 A 
ATOM     42  C   UNL d   1     -35.232 -29.664 -20.806  0.00  0.00     0.017 A 
BRANCH  40  43
ATOM     43  O   UNL d   1     -35.835 -31.956 -21.982  0.00  0.00    -0.361 OA
ATOM     44  H   UNL d   1     -35.516 -32.395 -21.680  0.00  0.00     0.217 HD
ENDBRANCH  40  43
ENDBRANCH   9  37
BRANCH   7  45
ATOM     45  O   UNL d   1     -33.641 -24.849 -20.331  0.00  0.00    -0.360 OA
ATOM     46  H   UNL d   1     -33.807 -24.359 -19.990  0.00  0.00     0.217 HD
ENDBRANCH   7  45
TORSDOF 9
ENDMDL
MODEL 2
REMARK VINA RESULT:   -11.589      2.813      6.010
REMARK INTER + INTRA:          -6.780
REMARK INTER:                 -15.515
REMARK INTRA:                   8.735
REMARK UNBOUND:                 8.874
REMARK  9 active torsions:
REMARK  status: ('A' for Active; 'I' for Inactive)
REMARK    1  A    between atoms: O_3  and  C_17 
REMARK    2  A    between atoms: O_4  and  C_18 
REMARK    3  A    between atoms: O_5  and  C_19 
REMARK    4  A    between atoms: O_7  and  C_32 
REMARK    5  A    between atoms: O_9  and  C_36 
REMARK    6  A    between atoms: O_10  and  C_40 
REMARK    7  A    between atoms: C_11  and  C_13 
REMARK    8  A    between atoms: C_15  and  C_20 
REMARK    9  A    between atoms: C_22  and  C_29 
ROOT
ATOM      1  O   UNL d   1     -36.294 -24.517 -21.751  0.00  0.00    -0.308 OA
ATOM      2  O   UNL d   1     -38.298 -22.281 -21.114  0.00  0.00    -0.287 OA
ATOM      3  C   UNL d   1     -37.488 -25.221 -22.836  0.00  0.00     0.045 A 
ATOM      4  C   UNL d   1     -37.237 -24.497 -22.193  0.00  0.00     0.107 A 
ATOM      5  C   UNL d   1     -37.887 -23.767 -21.984  0.00  0.00     0.082 A 
ATOM      6  C   UNL d   1     -38.389 -25.215 -23.269  0.00  0.00     0.082 A 
ATOM      7  C   UNL d   1     -38.789 -23.761 -22.416  0.00  0.00     0.085 A 
ATOM      8  C   UNL d   1     -39.040 -24.485 -23.059  0.00  0.00     0.075 A 
ATOM      9  C   UNL d   1     -36.025 -23.766 -21.081  0.00  0.00     0.090 A 
ATOM     10  C   UNL d   1     -37.640 -23.006 -21.317  0.00  0.00     0.190 A 
ATOM     11  C   UNL d   1     -36.703 -23.005 -20.862  0.00  0.00     0.094 A 
ENDROOT
BRANCH   3  12
ATOM     12  C   UNL d   1     -36.837 -25.951 -23.046  0.00  0.00     0.014 A 
ATOM     13  C   UNL d   1     -36.829 -26.786 -22.496  0.00  0.00     0.029 A 
ATOM     14  C   UNL d   1     -36.178 -27.516 -22.706  0.00  0.00    -0.001 A 
ATOM     15  C   UNL d   1     -35.537 -27.411 -23.465  0.00  0.00     0.017 A 
ATOM     16  C   UNL d   1     -35.545 -26.575 -24.015  0.00  0.00     0.038 A 
ATOM     17  C   UNL d   1     -36.196 -25.845 -23.805  0.00  0.00     0.076 A 
BRANCH  14  18
ATOM     18  C   UNL d   1     -36.170 -28.351 -22.156  0.00  0.00     0.090 A 
ATOM     19  O   UNL d   1     -36.053 -29.240 -22.599  0.00  0.00    -0.309 OA
ATOM     20  C   UNL d   1     -36.044 -30.075 -22.049  0.00  0.00     0.095 A 
ATOM     21  C   UNL d   1     -36.153 -30.022 -21.057  0.00  0.00     0.081 A 
ATOM     22  C   UNL d   1     -35.921 -30.994 -22.525  0.00  0.00     0.075 A 
ATOM     23  C   UNL d   1     -36.270 -29.133 -20.614  0.00  0.00     0.190 A 
ATOM     24  C   UNL d   1     -36.146 -30.883 -20.471  0.00  0.00     0.085 A 
ATOM     25  O   UNL d   1     -36.379 -29.079 -19.621  0.00  0.00    -0.287 OA
ATOM     26  C   UNL d   1     -36.279 -28.298 -21.164  0.00  0.00     0.094 A 
ATOM     27  C   UNL d   1     -36.024 -31.813 -20.925  0.00  0.00     0.074 A 
ATOM     28  C   UNL d   1     -35.911 -31.869 -21.959  0.00  0.00     0.071 A 
BRANCH  24  29
ATOM     29  O   UNL d   1     -36.255 -30.818 -19.479  0.00  0.00    -0.360 OA
ATOM     30  H   UNL d   1     -35.855 -31.106 -19.103  0.00  0.00     0.217 HD
ENDBRANCH  24  29
BRANCH  28  31
ATOM     31  O   UNL d   1     -35.793 -32.756 -22.406  0.00  0.00    -0.361 OA
ATOM     32  H   UNL d   1     -35.505 -32.791 -22.954  0.00  0.00     0.217 HD
ENDBRANCH  28  31
ENDBRANCH  14  18
BRANCH  17  33
ATOM     33  O   UNL d   1     -36.204 -25.010 -24.355  0.00  0.00    -0.360 OA
ATOM     34  H   UNL d   1     -35.916 -24.997 -24.904  0.00  0.00     0.217 HD
ENDBRANCH  17  33
ENDBRANCH   3  12
BRANCH   6  35
ATOM     35  O   UNL d   1     -38.640 -25.939 -23.911  0.00  0.00    -0.360 OA
ATOM     36  H   UNL d   1     -38.267 -26.428 -23.988  0.00  0.00     0.217 HD
ENDBRANCH   6  35
BRANCH   9  37
ATOM     37  C   UNL d   1     -35.122 -23.776 -20.650  0.00  0.00    -0.002 A 
ATOM     38  C   UNL d   1     -34.928 -24.423 -19.913  0.00  0.00     0.017 A 
ATOM     39  C   UNL d   1     -34.026 -24.433 -19.482  0.00  0.00     0.037 A 
ATOM     40  C   UNL d   1     -33.318 -23.796 -19.788  0.00  0.00     0.065 A 
ATOM     41  C   UNL d   1     -33.513 -23.149 -20.526  0.00  0.00     0.037 A 
ATOM     42  C   UNL d   1     -34.416 -23.140 -20.956  0.00  0.00     0.017 A 
BRANCH  40  43
ATOM     43  O   UNL d   1     -32.415 -23.806 -19.358  0.00  0.00    -0.361 OA
ATOM     44  H   UNL d   1     -32.286 -23.409 -18.899  0.00  0.00     0.217 HD
ENDBRANCH  40  43
ENDBRANCH   9  37
BRANCH   7  45
ATOM     45  O   UNL d   1     -39.439 -23.031 -22.207  0.00  0.00    -0.360 OA
ATOM     46  H   UNL d   1     -40.037 -23.166 -22.113  0.00  0.00     0.217 HD
ENDBRANCH   7  45
TORSDOF 9
ENDMDL
MODEL 3
REMARK VINA RESULT:   -11.578      2.755      6.579
REMARK INTER + INTRA:          -6.765
REMARK INTER:                 -15.529
REMARK INTRA:                   8.763
REMARK UNBOUND:                 8.874
REMARK  9 active torsions:
REMARK  status: ('A' for Active; 'I' for Inactive)
REMARK    1  A    between atoms: O_3  and  C_17 
REMARK    2  A    between atoms: O_4  and  C_18 
REMARK    3  A    between atoms: O_5  and  C_19 
REMARK    4  A    between atoms: O_7  and  C_32 
REMARK    5  A    between atoms: O_9  and  C_36 
REMARK    6  A    between atoms: O_10  and  C_40 
REMARK    7  A    between atoms: C_11  and  C_13 
REMARK    8  A    between atoms: C_15  and  C_20 
REMARK    9  A    between atoms: C_22  and  C_29 
ROOT
ATOM      1  O   UNL d   1     -37.292 -27.400 -22.558  0.00  0.00    -0.308 OA
ATOM      2  O   UNL d   1     -39.299 -29.468 -21.502  0.00  0.00    -0.287 OA
ATOM      3  C   UNL d   1     -35.998 -28.543 -22.216  0.00  0.00     0.045 A 
ATOM      4  C   UNL d   1     -36.975 -28.328 -22.206  0.00  0.00     0.107 A 
ATOM      5  C   UNL d   1     -37.631 -28.999 -21.863  0.00  0.00     0.082 A 
ATOM      6  C   UNL d   1     -35.678 -29.430 -21.882  0.00  0.00     0.082 A 
ATOM      7  C   UNL d   1     -37.312 -29.886 -21.529  0.00  0.00     0.085 A 
ATOM      8  C   UNL d   1     -36.335 -30.101 -21.538  0.00  0.00     0.075 A 
ATOM      9  C   UNL d   1     -38.308 -27.169 -22.551  0.00  0.00     0.090 A 
ATOM     10  C   UNL d   1     -38.651 -28.789 -21.847  0.00  0.00     0.190 A 
ATOM     11  C   UNL d   1     -38.992 -27.868 -22.193  0.00  0.00     0.094 A 
ENDROOT
BRANCH   3  12
ATOM     12  C   UNL d   1     -35.341 -27.872 -22.559  0.00  0.00     0.014 A 
ATOM     13  C   UNL d   1     -34.954 -27.189 -21.939  0.00  0.00     0.029 A 
ATOM     14  C   UNL d   1     -34.297 -26.518 -22.283  0.00  0.00    -0.001 A 
ATOM     15  C   UNL d   1     -34.028 -26.529 -23.246  0.00  0.00     0.017 A 
ATOM     16  C   UNL d   1     -34.415 -27.212 -23.865  0.00  0.00     0.038 A 
ATOM     17  C   UNL d   1     -35.072 -27.883 -23.522  0.00  0.00     0.076 A 
BRANCH  14  18
ATOM     18  C   UNL d   1     -33.910 -25.835 -21.663  0.00  0.00     0.090 A 
ATOM     19  O   UNL d   1     -33.554 -26.114 -20.771  0.00  0.00    -0.309 OA
ATOM     20  C   UNL d   1     -33.167 -25.431 -20.151  0.00  0.00     0.095 A 
ATOM     21  C   UNL d   1     -33.135 -24.470 -20.424  0.00  0.00     0.081 A 
ATOM     22  C   UNL d   1     -32.800 -25.737 -19.225  0.00  0.00     0.075 A 
ATOM     23  C   UNL d   1     -33.491 -24.191 -21.316  0.00  0.00     0.190 A 
ATOM     24  C   UNL d   1     -32.735 -23.747 -19.789  0.00  0.00     0.085 A 
ATOM     25  O   UNL d   1     -33.459 -23.229 -21.588  0.00  0.00    -0.287 OA
ATOM     26  C   UNL d   1     -33.878 -24.873 -21.936  0.00  0.00     0.094 A 
ATOM     27  C   UNL d   1     -32.362 -24.030 -18.858  0.00  0.00     0.074 A 
ATOM     28  C   UNL d   1     -32.395 -25.032 -18.574  0.00  0.00     0.071 A 
BRANCH  24  29
ATOM     29  O   UNL d   1     -32.708 -22.789 -20.072  0.00  0.00    -0.360 OA
ATOM     30  H   UNL d   1     -32.177 -22.539 -20.274  0.00  0.00     0.217 HD
ENDBRANCH  24  29
BRANCH  28  31
ATOM     31  O   UNL d   1     -32.041 -25.315 -17.683  0.00  0.00    -0.361 OA
ATOM     32  H   UNL d   1     -32.149 -25.889 -17.474  0.00  0.00     0.217 HD
ENDBRANCH  28  31
ENDBRANCH  14  18
BRANCH  17  33
ATOM     33  O   UNL d   1     -35.459 -28.566 -24.141  0.00  0.00    -0.360 OA
ATOM     34  H   UNL d   1     -35.836 -28.389 -24.601  0.00  0.00     0.217 HD
ENDBRANCH  17  33
ENDBRANCH   3  12
BRANCH   6  35
ATOM     35  O   UNL d   1     -34.702 -29.645 -21.891  0.00  0.00    -0.360 OA
ATOM     36  H   UNL d   1     -34.338 -29.415 -22.337  0.00  0.00     0.217 HD
ENDBRANCH   6  35
BRANCH   9  37
ATOM     37  C   UNL d   1     -38.623 -26.281 -22.886  0.00  0.00    -0.002 A 
ATOM     38  C   UNL d   1     -38.251 -25.906 -23.735  0.00  0.00     0.017 A 
ATOM     39  C   UNL d   1     -38.566 -25.019 -24.071  0.00  0.00     0.037 A 
ATOM     40  C   UNL d   1     -39.253 -24.505 -23.557  0.00  0.00     0.065 A 
ATOM     41  C   UNL d   1     -39.626 -24.880 -22.708  0.00  0.00     0.037 A 
ATOM     42  C   UNL d   1     -39.310 -25.768 -22.373  0.00  0.00     0.017 A 
BRANCH  40  43
ATOM     43  O   UNL d   1     -39.569 -23.617 -23.892  0.00  0.00    -0.361 OA
ATOM     44  H   UNL d   1     -39.355 -23.395 -24.431  0.00  0.00     0.217 HD
ENDBRANCH  40  43
ENDBRANCH   9  37
BRANCH   7  45
ATOM     45  O   UNL d   1     -37.968 -30.557 -21.186  0.00  0.00    -0.360 OA
ATOM     46  H   UNL d   1     -37.794 -30.970 -20.757  0.00  0.00     0.217 HD
ENDBRANCH   7  45
TORSDOF 9
ENDMDL
MODEL 4
REMARK VINA RESULT:   -11.569      1.917      4.423
REMARK INTER + INTRA:          -6.754
REMARK INTER:                 -15.362
REMARK INTRA:                   8.608
REMARK UNBOUND:                 8.874
REMARK  9 active torsions:
REMARK  status: ('A' for Active; 'I' for Inactive)
REMARK    1  A    between atoms: O_3  and  C_17 
REMARK    2  A    between atoms: O_4  and  C_18 
REMARK    3  A    between atoms: O_5  and  C_19 
REMARK    4  A    between atoms: O_7  and  C_32 
REMARK    5  A    between atoms: O_9  and  C_36 
REMARK    6  A    between atoms: O_10  and  C_40 
REMARK    7  A    between atoms: C_11  and  C_13 
REMARK    8  A    between atoms: C_15  and  C_20 
REMARK    9  A    between atoms: C_22  and  C_29 
ROOT
ATOM      1  O   UNL d   1     -37.401 -27.489 -22.670  0.00  0.00    -0.308 OA
ATOM      2  O   UNL d   1     -39.300 -29.392 -21.190  0.00  0.00    -0.287 OA
ATOM      3  C   UNL d   1     -36.139 -28.708 -22.532  0.00  0.00     0.045 A 
ATOM      4  C   UNL d   1     -37.081 -28.427 -22.350  0.00  0.00     0.107 A 
ATOM      5  C   UNL d   1     -37.703 -29.045 -21.868  0.00  0.00     0.082 A 
ATOM      6  C   UNL d   1     -35.818 -29.606 -22.231  0.00  0.00     0.082 A 
ATOM      7  C   UNL d   1     -37.382 -29.943 -21.568  0.00  0.00     0.085 A 
ATOM      8  C   UNL d   1     -36.439 -30.224 -21.749  0.00  0.00     0.075 A 
ATOM      9  C   UNL d   1     -38.381 -27.190 -22.484  0.00  0.00     0.090 A 
ATOM     10  C   UNL d   1     -38.687 -28.766 -21.673  0.00  0.00     0.190 A 
ATOM     11  C   UNL d   1     -39.029 -27.833 -21.982  0.00  0.00     0.094 A 
ENDROOT
BRANCH   3  12
ATOM     12  C   UNL d   1     -35.517 -28.090 -23.013  0.00  0.00     0.014 A 
ATOM     13  C   UNL d   1     -35.486 -28.092 -24.013  0.00  0.00     0.029 A 
ATOM     14  C   UNL d   1     -34.864 -27.474 -24.495  0.00  0.00    -0.001 A 
ATOM     15  C   UNL d   1     -34.274 -26.855 -23.977  0.00  0.00     0.017 A 
ATOM     16  C   UNL d   1     -34.305 -26.853 -22.978  0.00  0.00     0.038 A 
ATOM     17  C   UNL d   1     -34.927 -27.471 -22.496  0.00  0.00     0.076 A 
BRANCH  14  18
ATOM     18  C   UNL d   1     -34.833 -27.476 -25.494  0.00  0.00     0.090 A 
ATOM     19  O   UNL d   1     -34.250 -28.131 -25.975  0.00  0.00    -0.309 OA
ATOM     20  C   UNL d   1     -34.218 -28.133 -26.975  0.00  0.00     0.095 A 
ATOM     21  C   UNL d   1     -34.770 -27.480 -27.493  0.00  0.00     0.081 A 
ATOM     22  C   UNL d   1     -33.606 -28.821 -27.462  0.00  0.00     0.075 A 
ATOM     23  C   UNL d   1     -35.354 -26.825 -27.012  0.00  0.00     0.190 A 
ATOM     24  C   UNL d   1     -34.748 -27.470 -28.535  0.00  0.00     0.085 A 
ATOM     25  O   UNL d   1     -35.906 -26.172 -27.531  0.00  0.00    -0.287 OA
ATOM     26  C   UNL d   1     -35.385 -26.823 -26.013  0.00  0.00     0.094 A 
ATOM     27  C   UNL d   1     -34.143 -28.149 -29.043  0.00  0.00     0.074 A 
ATOM     28  C   UNL d   1     -33.568 -28.829 -28.503  0.00  0.00     0.071 A 
BRANCH  24  29
ATOM     29  O   UNL d   1     -35.304 -26.812 -29.043  0.00  0.00    -0.360 OA
ATOM     30  H   UNL d   1     -35.915 -26.903 -29.102  0.00  0.00     0.217 HD
ENDBRANCH  24  29
BRANCH  28  31
ATOM     31  O   UNL d   1     -32.983 -29.485 -28.980  0.00  0.00    -0.361 OA
ATOM     32  H   UNL d   1     -33.232 -29.992 -29.237  0.00  0.00     0.217 HD
ENDBRANCH  28  31
ENDBRANCH  14  18
BRANCH  17  33
ATOM     33  O   UNL d   1     -34.958 -27.469 -21.496  0.00  0.00    -0.360 OA
ATOM     34  H   UNL d   1     -34.985 -28.005 -21.186  0.00  0.00     0.217 HD
ENDBRANCH  17  33
ENDBRANCH   3  12
BRANCH   6  35
ATOM     35  O   UNL d   1     -34.875 -29.886 -22.412  0.00  0.00    -0.360 OA
ATOM     36  H   UNL d   1     -34.682 -29.963 -22.996  0.00  0.00     0.217 HD
ENDBRANCH   6  35
BRANCH   9  37
ATOM     37  C   UNL d   1     -38.699 -26.290 -22.787  0.00  0.00    -0.002 A 
ATOM     38  C   UNL d   1     -39.314 -25.757 -22.206  0.00  0.00     0.017 A 
ATOM     39  C   UNL d   1     -39.631 -24.858 -22.508  0.00  0.00     0.037 A 
ATOM     40  C   UNL d   1     -39.333 -24.493 -23.389  0.00  0.00     0.065 A 
ATOM     41  C   UNL d   1     -38.718 -25.026 -23.970  0.00  0.00     0.037 A 
ATOM     42  C   UNL d   1     -38.401 -25.925 -23.668  0.00  0.00     0.017 A 
BRANCH  40  43
ATOM     43  O   UNL d   1     -39.650 -23.593 -23.692  0.00  0.00    -0.361 OA
ATOM     44  H   UNL d   1     -39.269 -23.220 -24.009  0.00  0.00     0.217 HD
ENDBRANCH  40  43
ENDBRANCH   9  37
BRANCH   7  45
ATOM     45  O   UNL d   1     -38.004 -30.561 -21.086  0.00  0.00    -0.360 OA
ATOM     46  H   UNL d   1     -38.357 -30.957 -21.406  0.00  0.00     0.217 HD
ENDBRANCH   7  45
TORSDOF 9
ENDMDL
MODEL 5
REMARK VINA RESULT:   -11.562      2.454      6.195
REMARK INTER + INTRA:          -6.744
REMARK INTER:                 -15.403
REMARK INTRA:                   8.659
REMARK UNBOUND:                 8.874
REMARK  9 active torsions:
REMARK  status: ('A' for Active; 'I' for Inactive)
REMARK    1  A    between atoms: O_3  and  C_17 
REMARK    2  A    between atoms: O_4  and  C_18 
REMARK    3  A    between atoms: O_5  and  C_19 
REMARK    4  A    between atoms: O_7  and  C_32 
REMARK    5  A    between atoms: O_9  and  C_36 
REMARK    6  A    between atoms: O_10  and  C_40 
REMARK    7  A    between atoms: C_11  and  C_13 
REMARK    8  A    between atoms: C_15  and  C_20 
REMARK    9  A    between atoms: C_22  and  C_29 
ROOT
ATOM      1  O   UNL d   1     -35.267 -26.835 -22.858  0.00  0.00    -0.308 OA
ATOM      2  O   UNL d   1     -35.113 -29.860 -22.361  0.00  0.00    -0.287 OA
ATOM      3  C   UNL d   1     -34.849 -26.579 -21.167  0.00  0.00     0.045 A 
ATOM      4  C   UNL d   1     -35.029 -27.215 -21.917  0.00  0.00     0.107 A 
ATOM      5  C   UNL d   1     -34.980 -28.201 -21.759  0.00  0.00     0.082 A 
ATOM      6  C   UNL d   1     -34.620 -26.928 -20.259  0.00  0.00     0.082 A 
ATOM      7  C   UNL d   1     -34.751 -28.551 -20.851  0.00  0.00     0.085 A 
ATOM      8  C   UNL d   1     -34.571 -27.915 -20.101  0.00  0.00     0.075 A 
ATOM      9  C   UNL d   1     -35.456 -27.492 -23.644  0.00  0.00     0.090 A 
ATOM     10  C   UNL d   1     -35.165 -28.876 -22.531  0.00  0.00     0.190 A 
ATOM     11  C   UNL d   1     -35.404 -28.520 -23.479  0.00  0.00     0.094 A 
ENDROOT
BRANCH   3  12
ATOM     12  C   UNL d   1     -34.899 -25.592 -21.325  0.00  0.00     0.014 A 
ATOM     13  C   UNL d   1     -35.771 -25.114 -21.229  0.00  0.00     0.029 A 
ATOM     14  C   UNL d   1     -35.821 -24.127 -21.388  0.00  0.00    -0.001 A 
ATOM     15  C   UNL d   1     -34.997 -23.620 -21.642  0.00  0.00     0.017 A 
ATOM     16  C   UNL d   1     -34.125 -24.099 -21.738  0.00  0.00     0.038 A 
ATOM     17  C   UNL d   1     -34.075 -25.085 -21.579  0.00  0.00     0.076 A 
BRANCH  14  18
ATOM     18  C   UNL d   1     -36.693 -23.649 -21.292  0.00  0.00     0.090 A 
ATOM     19  O   UNL d   1     -37.513 -24.009 -21.738  0.00  0.00    -0.309 OA
ATOM     20  C   UNL d   1     -38.385 -23.530 -21.642  0.00  0.00     0.095 A 
ATOM     21  C   UNL d   1     -38.439 -22.691 -21.100  0.00  0.00     0.081 A 
ATOM     22  C   UNL d   1     -39.231 -23.917 -22.112  0.00  0.00     0.075 A 
ATOM     23  C   UNL d   1     -37.619 -22.331 -20.654  0.00  0.00     0.190 A 
ATOM     24  C   UNL d   1     -39.340 -22.181 -20.991  0.00  0.00     0.085 A 
ATOM     25  O   UNL d   1     -37.672 -21.492 -20.112  0.00  0.00    -0.287 OA
ATOM     26  C   UNL d   1     -36.746 -22.810 -20.750  0.00  0.00     0.094 A 
ATOM     27  C   UNL d   1     -40.199 -22.550 -21.453  0.00  0.00     0.074 A 
ATOM     28  C   UNL d   1     -40.143 -23.424 -22.017  0.00  0.00     0.071 A 
BRANCH  24  29
ATOM     29  O   UNL d   1     -39.382 -21.344 -20.447  0.00  0.00    -0.360 OA
ATOM     30  H   UNL d   1     -39.227 -20.800 -20.702  0.00  0.00     0.217 HD
ENDBRANCH  24  29
BRANCH  28  31
ATOM     31  O   UNL d   1     -40.961 -23.787 -22.464  0.00  0.00    -0.361 OA
ATOM     32  H   UNL d   1     -41.465 -23.431 -22.524  0.00  0.00     0.217 HD
ENDBRANCH  28  31
ENDBRANCH  14  18
BRANCH  17  33
ATOM     33  O   UNL d   1     -33.203 -25.564 -21.675  0.00  0.00    -0.360 OA
ATOM     34  H   UNL d   1     -32.846 -25.462 -22.172  0.00  0.00     0.217 HD
ENDBRANCH  17  33
ENDBRANCH   3  12
BRANCH   6  35
ATOM     35  O   UNL d   1     -34.440 -26.292 -19.509  0.00  0.00    -0.360 OA
ATOM     36  H   UNL d   1     -33.992 -25.867 -19.563  0.00  0.00     0.217 HD
ENDBRANCH   6  35
BRANCH   9  37
ATOM     37  C   UNL d   1     -35.685 -27.138 -24.551  0.00  0.00    -0.002 A 
ATOM     38  C   UNL d   1     -35.114 -27.374 -25.338  0.00  0.00     0.017 A 
ATOM     39  C   UNL d   1     -35.343 -27.021 -26.245  0.00  0.00     0.037 A 
ATOM     40  C   UNL d   1     -36.141 -26.431 -26.365  0.00  0.00     0.065 A 
ATOM     41  C   UNL d   1     -36.711 -26.194 -25.578  0.00  0.00     0.037 A 
ATOM     42  C   UNL d   1     -36.482 -26.548 -24.671  0.00  0.00     0.017 A 
BRANCH  40  43
ATOM     43  O   UNL d   1     -36.370 -26.077 -27.272  0.00  0.00    -0.361 OA
ATOM     44  H   UNL d   1     -36.803 -25.636 -27.333  0.00  0.00     0.217 HD
ENDBRANCH  40  43
ENDBRANCH   9  37
BRANCH   7  45
ATOM     45  O   UNL d   1     -34.702 -29.537 -20.693  0.00  0.00    -0.360 OA
ATOM     46  H   UNL d   1     -34.206 -29.782 -20.411  0.00  0.00     0.217 HD
ENDBRANCH   7  45
TORSDOF 9
ENDMDL
