MODEL 1
REMARK VINA RESULT:    -8.396      0.000      0.000
REMARK INTER + INTRA:          -1.421
REMARK INTER:                 -15.898
REMARK INTRA:                  14.477
REMARK UNBOUND:                14.338
REMARK  18 active torsions:
REMARK  status: ('A' for Active; 'I' for Inactive)
REMARK    1  A    between atoms: C_17  and  O_1 
REMARK    2  A    between atoms: C_19  and  O_1 
REMARK    3  A    between atoms: C_16  and  O_4 
REMARK    4  A    between atoms: C_18  and  O_5 
REMARK    5  A    between atoms: C_20  and  O_6 
REMARK    6  A    between atoms: C_22  and  O_7 
REMARK    7  A    between atoms: O_7  and  C_27 
REMARK    8  A    between atoms: C_21  and  O_8 
REMARK    9  A    between atoms: O_9  and  C_25 
REMARK   10  A    between atoms: O_9  and  C_28 
REMARK   11  A    between atoms: O_10  and  C_26 
REMARK   12  A    between atoms: O_12  and  C_32 
REMARK   13  A    between atoms: O_13  and  C_34 
REMARK   14  A    between atoms: O_14  and  C_37 
REMARK   15  A    between atoms: O_15  and  C_39 
REMARK   16  A    between atoms: C_16  and  C_25 
REMARK   17  A    between atoms: C_24  and  C_26 
REMARK   18  A    between atoms: C_28  and  C_31 
ROOT
ATOM      1  O   UNL d   1     -40.167 -26.999 -21.980  0.00  0.00    -0.348 OA
ATOM      2  C   UNL d   1     -38.805 -28.067 -22.035  0.00  0.00     0.211 A 
ATOM      3  C   UNL d   1     -39.409 -28.846 -21.868  0.00  0.00     0.183 A 
ATOM      4  C   UNL d   1     -40.392 -28.702 -21.757  0.00  0.00     0.180 A 
ATOM      5  C   UNL d   1     -39.184 -27.144 -22.091  0.00  0.00     0.298 A 
ATOM      6  C   UNL d   1     -40.771 -27.778 -21.813  0.00  0.00     0.179 A 
ENDROOT
BRANCH   2   7
ATOM      7  O   UNL d   1     -37.822 -28.212 -22.147  0.00  0.00    -0.346 OA
BRANCH   7   8
ATOM      8  C   UNL d   1     -37.205 -28.073 -21.372  0.00  0.00     0.292 A 
ATOM      9  O   UNL d   1     -37.400 -28.297 -20.418  0.00  0.00    -0.355 OA
ATOM     10  C   UNL d   1     -36.600 -28.047 -19.872  0.00  0.00     0.213 A 
ATOM     11  C   UNL d   1     -35.910 -27.669 -20.489  0.00  0.00     0.131 A 
ATOM     12  C   UNL d   1     -36.284 -27.684 -21.416  0.00  0.00     0.211 A 
BRANCH  11  13
ATOM     13  O   UNL d   1     -35.293 -27.529 -19.714  0.00  0.00    -0.383 OA
ATOM     14  H   UNL d   1     -35.196 -26.958 -19.495  0.00  0.00     0.210 HD
ENDBRANCH  11  13
BRANCH  11  15
ATOM     15  C   UNL d   1     -35.064 -27.265 -20.837  0.00  0.00     0.221 C 
BRANCH  15  16
ATOM     16  O   UNL d   1     -34.689 -26.443 -20.409  0.00  0.00    -0.314 OA
BRANCH  16  17
ATOM     17  C   UNL d   1     -33.883 -25.999 -20.799  0.00  0.00     0.293 C 
ATOM     18  O   UNL d   1     -33.140 -26.553 -21.174  0.00  0.00    -0.259 OA
BRANCH  17  19
ATOM     19  C   UNL d   1     -33.820 -25.001 -20.815  0.00  0.00     0.042 A 
ATOM     20  C   UNL d   1     -34.643 -24.451 -20.958  0.00  0.00     0.057 A 
ATOM     21  C   UNL d   1     -34.580 -23.453 -20.974  0.00  0.00     0.102 A 
ATOM     22  C   UNL d   1     -33.695 -23.006 -20.847  0.00  0.00     0.099 A 
ATOM     23  C   UNL d   1     -32.872 -23.556 -20.705  0.00  0.00     0.040 A 
ATOM     24  C   UNL d   1     -32.935 -24.554 -20.689  0.00  0.00     0.020 A 
BRANCH  21  25
ATOM     25  O   UNL d   1     -35.403 -22.902 -21.116  0.00  0.00    -0.353 OA
ATOM     26  C   UNL d   1     -36.281 -23.350 -21.289  0.00  0.00     0.210 C 
ENDBRANCH  21  25
BRANCH  22  27
ATOM     27  O   UNL d   1     -33.632 -22.008 -20.863  0.00  0.00    -0.358 OA
ATOM     28  H   UNL d   1     -33.082 -21.733 -20.947  0.00  0.00     0.217 HD
ENDBRANCH  22  27
ENDBRANCH  17  19
ENDBRANCH  16  17
ENDBRANCH  15  16
ENDBRANCH  11  15
BRANCH  12  29
ATOM     29  O   UNL d   1     -35.819 -27.367 -22.243  0.00  0.00    -0.387 OA
ATOM     30  H   UNL d   1     -35.765 -27.744 -22.732  0.00  0.00     0.210 HD
ENDBRANCH  12  29
ENDBRANCH   7   8
ENDBRANCH   2   7
BRANCH   3  31
ATOM     31  O   UNL d   1     -39.030 -29.770 -21.812  0.00  0.00    -0.390 OA
ATOM     32  H   UNL d   1     -38.469 -29.890 -22.047  0.00  0.00     0.210 HD
ENDBRANCH   3  31
BRANCH   5  33
ATOM     33  O   UNL d   1     -38.580 -26.365 -22.259  0.00  0.00    -0.318 OA
BRANCH  33  34
ATOM     34  C   UNL d   1     -38.873 -25.626 -22.866  0.00  0.00     0.075 A 
ATOM     35  C   UNL d   1     -39.438 -24.881 -22.511  0.00  0.00     0.076 A 
ATOM     36  C   UNL d   1     -39.731 -24.143 -23.118  0.00  0.00     0.104 A 
ATOM     37  C   UNL d   1     -39.458 -24.149 -24.080  0.00  0.00     0.101 A 
ATOM     38  C   UNL d   1     -38.893 -24.894 -24.435  0.00  0.00     0.042 A 
ATOM     39  C   UNL d   1     -38.600 -25.632 -23.828  0.00  0.00     0.040 A 
BRANCH  36  40
ATOM     40  O   UNL d   1     -40.296 -23.398 -22.763  0.00  0.00    -0.353 OA
ATOM     41  C   UNL d   1     -40.608 -23.416 -21.813  0.00  0.00     0.210 C 
ENDBRANCH  36  40
BRANCH  37  42
ATOM     42  O   UNL d   1     -39.751 -23.410 -24.688  0.00  0.00    -0.353 OA
ATOM     43  C   UNL d   1     -39.675 -23.518 -25.679  0.00  0.00     0.210 C 
ENDBRANCH  37  42
ENDBRANCH  33  34
ENDBRANCH   5  33
BRANCH   4  44
ATOM     44  O   UNL d   1     -40.996 -29.481 -21.589  0.00  0.00    -0.390 OA
ATOM     45  H   UNL d   1     -40.788 -30.059 -21.673  0.00  0.00     0.210 HD
ENDBRANCH   4  44
BRANCH   6  46
ATOM     46  C   UNL d   1     -41.754 -27.633 -21.701  0.00  0.00     0.198 C 
BRANCH  46  47
ATOM     47  O   UNL d   1     -42.223 -26.942 -22.250  0.00  0.00    -0.398 OA
ATOM     48  H   UNL d   1     -42.139 -26.340 -22.128  0.00  0.00     0.209 HD
ENDBRANCH  46  47
ENDBRANCH   6  46
TORSDOF 18
ENDMDL
MODEL 2
REMARK VINA RESULT:    -8.312      1.154      1.949
REMARK INTER + INTRA:          -1.262
REMARK INTER:                 -15.412
REMARK INTRA:                  14.150
REMARK UNBOUND:                14.338
REMARK  18 active torsions:
REMARK  status: ('A' for Active; 'I' for Inactive)
REMARK    1  A    between atoms: C_17  and  O_1 
REMARK    2  A    between atoms: C_19  and  O_1 
REMARK    3  A    between atoms: C_16  and  O_4 
REMARK    4  A    between atoms: C_18  and  O_5 
REMARK    5  A    between atoms: C_20  and  O_6 
REMARK    6  A    between atoms: C_22  and  O_7 
REMARK    7  A    between atoms: O_7  and  C_27 
REMARK    8  A    between atoms: C_21  and  O_8 
REMARK    9  A    between atoms: O_9  and  C_25 
REMARK   10  A    between atoms: O_9  and  C_28 
REMARK   11  A    between atoms: O_10  and  C_26 
REMARK   12  A    between atoms: O_12  and  C_32 
REMARK   13  A    between atoms: O_13  and  C_34 
REMARK   14  A    between atoms: O_14  and  C_37 
REMARK   15  A    between atoms: O_15  and  C_39 
REMARK   16  A    between atoms: C_16  and  C_25 
REMARK   17  A    between atoms: C_24  and  C_26 
REMARK   18  A    between atoms: C_28  and  C_31 
ROOT
ATOM      1  O   UNL d   1     -40.343 -26.917 -21.797  0.00  0.00    -0.348 OA
ATOM      2  C   UNL d   1     -39.090 -28.101 -21.961  0.00  0.00     0.211 A 
ATOM      3  C   UNL d   1     -39.762 -28.830 -21.830  0.00  0.00     0.183 A 
ATOM      4  C   UNL d   1     -40.724 -28.602 -21.681  0.00  0.00     0.180 A 
ATOM      5  C   UNL d   1     -39.381 -27.144 -21.945  0.00  0.00     0.298 A 
ATOM      6  C   UNL d   1     -41.015 -27.646 -21.665  0.00  0.00     0.179 A 
ENDROOT
BRANCH   2   7
ATOM      7  O   UNL d   1     -38.128 -28.329 -22.110  0.00  0.00    -0.346 OA
BRANCH   7   8
ATOM      8  C   UNL d   1     -37.493 -28.341 -21.338  0.00  0.00     0.292 A 
ATOM      9  O   UNL d   1     -37.715 -28.595 -20.397  0.00  0.00    -0.355 OA
ATOM     10  C   UNL d   1     -36.883 -28.512 -19.849  0.00  0.00     0.213 A 
ATOM     11  C   UNL d   1     -36.145 -28.207 -20.451  0.00  0.00     0.131 A 
ATOM     12  C   UNL d   1     -36.522 -28.101 -21.371  0.00  0.00     0.211 A 
BRANCH  11  13
ATOM     13  O   UNL d   1     -35.510 -28.219 -19.679  0.00  0.00    -0.383 OA
ATOM     14  H   UNL d   1     -35.087 -27.770 -19.619  0.00  0.00     0.210 HD
ENDBRANCH  11  13
BRANCH  11  15
ATOM     15  C   UNL d   1     -35.248 -27.921 -20.785  0.00  0.00     0.221 C 
BRANCH  15  16
ATOM     16  O   UNL d   1     -34.678 -27.314 -20.231  0.00  0.00    -0.314 OA
BRANCH  16  17
ATOM     17  C   UNL d   1     -33.816 -26.964 -20.598  0.00  0.00     0.293 C 
ATOM     18  O   UNL d   1     -33.276 -27.524 -21.226  0.00  0.00    -0.259 OA
BRANCH  17  19
ATOM     19  C   UNL d   1     -33.495 -26.054 -20.337  0.00  0.00     0.042 A 
ATOM     20  C   UNL d   1     -33.098 -25.905 -19.431  0.00  0.00     0.057 A 
ATOM     21  C   UNL d   1     -32.776 -24.995 -19.170  0.00  0.00     0.102 A 
ATOM     22  C   UNL d   1     -32.852 -24.234 -19.814  0.00  0.00     0.099 A 
ATOM     23  C   UNL d   1     -33.249 -24.383 -20.719  0.00  0.00     0.040 A 
ATOM     24  C   UNL d   1     -33.570 -25.293 -20.981  0.00  0.00     0.020 A 
BRANCH  21  25
ATOM     25  O   UNL d   1     -32.379 -24.845 -18.263  0.00  0.00    -0.353 OA
ATOM     26  C   UNL d   1     -32.611 -25.459 -17.509  0.00  0.00     0.210 C 
ENDBRANCH  21  25
BRANCH  22  27
ATOM     27  O   UNL d   1     -32.530 -23.324 -19.553  0.00  0.00    -0.358 OA
ATOM     28  H   UNL d   1     -32.931 -22.852 -19.515  0.00  0.00     0.217 HD
ENDBRANCH  22  27
ENDBRANCH  17  19
ENDBRANCH  16  17
ENDBRANCH  15  16
ENDBRANCH  11  15
BRANCH  12  29
ATOM     29  O   UNL d   1     -36.017 -27.807 -22.182  0.00  0.00    -0.387 OA
ATOM     30  H   UNL d   1     -35.805 -27.225 -22.222  0.00  0.00     0.210 HD
ENDBRANCH  12  29
ENDBRANCH   7   8
ENDBRANCH   2   7
BRANCH   3  31
ATOM     31  O   UNL d   1     -39.471 -29.787 -21.846  0.00  0.00    -0.390 OA
ATOM     32  H   UNL d   1     -38.869 -29.927 -21.887  0.00  0.00     0.210 HD
ENDBRANCH   3  31
BRANCH   5  33
ATOM     33  O   UNL d   1     -38.709 -26.415 -22.077  0.00  0.00    -0.318 OA
BRANCH  33  34
ATOM     34  C   UNL d   1     -38.978 -25.460 -21.955  0.00  0.00     0.075 A 
ATOM     35  C   UNL d   1     -39.302 -24.928 -22.738  0.00  0.00     0.076 A 
ATOM     36  C   UNL d   1     -39.571 -23.973 -22.616  0.00  0.00     0.104 A 
ATOM     37  C   UNL d   1     -39.516 -23.549 -21.712  0.00  0.00     0.101 A 
ATOM     38  C   UNL d   1     -39.192 -24.080 -20.930  0.00  0.00     0.042 A 
ATOM     39  C   UNL d   1     -38.923 -25.036 -21.051  0.00  0.00     0.040 A 
BRANCH  36  40
ATOM     40  O   UNL d   1     -39.895 -23.441 -23.399  0.00  0.00    -0.353 OA
ATOM     41  C   UNL d   1     -40.015 -23.883 -24.288  0.00  0.00     0.210 C 
ENDBRANCH  36  40
BRANCH  37  42
ATOM     42  O   UNL d   1     -39.785 -22.593 -21.591  0.00  0.00    -0.353 OA
ATOM     43  C   UNL d   1     -39.654 -22.146 -20.706  0.00  0.00     0.210 C 
ENDBRANCH  37  42
ENDBRANCH  33  34
ENDBRANCH   5  33
BRANCH   4  44
ATOM     44  O   UNL d   1     -41.396 -29.331 -21.550  0.00  0.00    -0.390 OA
ATOM     45  H   UNL d   1     -41.510 -29.734 -22.007  0.00  0.00     0.210 HD
ENDBRANCH   4  44
BRANCH   6  46
ATOM     46  C   UNL d   1     -41.978 -27.418 -21.517  0.00  0.00     0.198 C 
BRANCH  46  47
ATOM     47  O   UNL d   1     -42.360 -26.582 -21.911  0.00  0.00    -0.398 OA
ATOM     48  H   UNL d   1     -41.999 -26.201 -22.240  0.00  0.00     0.209 HD
ENDBRANCH  46  47
ENDBRANCH   6  46
TORSDOF 18
ENDMDL
MODEL 3
REMARK VINA RESULT:    -8.303      1.982      6.814
REMARK INTER + INTRA:          -1.246
REMARK INTER:                 -15.477
REMARK INTRA:                  14.231
REMARK UNBOUND:                14.338
REMARK  18 active torsions:
REMARK  status: ('A' for Active; 'I' for Inactive)
REMARK    1  A    between atoms: C_17  and  O_1 
REMARK    2  A    between atoms: C_19  and  O_1 
REMARK    3  A    between atoms: C_16  and  O_4 
REMARK    4  A    between atoms: C_18  and  O_5 
REMARK    5  A    between atoms: C_20  and  O_6 
REMARK    6  A    between atoms: C_22  and  O_7 
REMARK    7  A    between atoms: O_7  and  C_27 
REMARK    8  A    between atoms: C_21  and  O_8 
REMARK    9  A    between atoms: O_9  and  C_25 
REMARK   10  A    between atoms: O_9  and  C_28 
REMARK   11  A    between atoms: O_10  and  C_26 
REMARK   12  A    between atoms: O_12  and  C_32 
REMARK   13  A    between atoms: O_13  and  C_34 
REMARK   14  A    between atoms: O_14  and  C_37 
REMARK   15  A    between atoms: O_15  and  C_39 
REMARK   16  A    between atoms: C_16  and  C_25 
REMARK   17  A    between atoms: C_24  and  C_26 
REMARK   18  A    between atoms: C_28  and  C_31 
ROOT
ATOM      1  O   UNL d   1     -34.494 -24.859 -21.686  0.00  0.00    -0.348 OA
ATOM      2  C   UNL d   1     -35.836 -23.767 -21.613  0.00  0.00     0.211 A 
ATOM      3  C   UNL d   1     -35.226 -23.039 -21.299  0.00  0.00     0.183 A 
ATOM      4  C   UNL d   1     -34.251 -23.221 -21.179  0.00  0.00     0.180 A 
ATOM      5  C   UNL d   1     -35.470 -24.677 -21.806  0.00  0.00     0.298 A 
ATOM      6  C   UNL d   1     -33.884 -24.131 -21.372  0.00  0.00     0.179 A 
ENDROOT
BRANCH   2   7
ATOM      7  O   UNL d   1     -36.812 -23.585 -21.733  0.00  0.00    -0.346 OA
BRANCH   7   8
ATOM      8  C   UNL d   1     -37.460 -23.841 -21.016  0.00  0.00     0.292 A 
ATOM      9  O   UNL d   1     -37.280 -23.843 -20.033  0.00  0.00    -0.355 OA
ATOM     10  C   UNL d   1     -38.111 -24.143 -19.565  0.00  0.00     0.213 A 
ATOM     11  C   UNL d   1     -38.806 -24.328 -20.260  0.00  0.00     0.131 A 
ATOM     12  C   UNL d   1     -38.404 -24.141 -21.156  0.00  0.00     0.211 A 
BRANCH  11  13
ATOM     13  O   UNL d   1     -39.454 -24.584 -19.543  0.00  0.00    -0.383 OA
ATOM     14  H   UNL d   1     -39.857 -25.046 -19.640  0.00  0.00     0.210 HD
ENDBRANCH  11  13
BRANCH  11  15
ATOM     15  C   UNL d   1     -39.667 -24.583 -20.699  0.00  0.00     0.221 C 
BRANCH  15  16
ATOM     16  O   UNL d   1     -40.107 -25.451 -20.471  0.00  0.00    -0.314 OA
BRANCH  16  17
ATOM     17  C   UNL d   1     -40.923 -25.744 -20.968  0.00  0.00     0.293 C 
ATOM     18  O   UNL d   1     -41.595 -25.068 -21.269  0.00  0.00    -0.259 OA
BRANCH  17  19
ATOM     19  C   UNL d   1     -41.068 -26.714 -21.165  0.00  0.00     0.042 A 
ATOM     20  C   UNL d   1     -40.304 -27.280 -21.475  0.00  0.00     0.057 A 
ATOM     21  C   UNL d   1     -40.448 -28.250 -21.672  0.00  0.00     0.102 A 
ATOM     22  C   UNL d   1     -41.356 -28.654 -21.559  0.00  0.00     0.099 A 
ATOM     23  C   UNL d   1     -42.120 -28.087 -21.249  0.00  0.00     0.040 A 
ATOM     24  C   UNL d   1     -41.975 -27.118 -21.052  0.00  0.00     0.020 A 
BRANCH  21  25
ATOM     25  O   UNL d   1     -39.684 -28.817 -21.982  0.00  0.00    -0.353 OA
ATOM     26  C   UNL d   1     -38.841 -28.386 -22.305  0.00  0.00     0.210 C 
ENDBRANCH  21  25
BRANCH  22  27
ATOM     27  O   UNL d   1     -41.500 -29.623 -21.756  0.00  0.00    -0.358 OA
ATOM     28  H   UNL d   1     -41.382 -29.846 -22.323  0.00  0.00     0.217 HD
ENDBRANCH  22  27
ENDBRANCH  17  19
ENDBRANCH  16  17
ENDBRANCH  15  16
ENDBRANCH  11  15
BRANCH  12  29
ATOM     29  O   UNL d   1     -38.865 -24.238 -22.038  0.00  0.00    -0.387 OA
ATOM     30  H   UNL d   1     -38.601 -24.569 -22.492  0.00  0.00     0.210 HD
ENDBRANCH  12  29
ENDBRANCH   7   8
ENDBRANCH   2   7
BRANCH   3  31
ATOM     31  O   UNL d   1     -35.593 -22.129 -21.106  0.00  0.00    -0.390 OA
ATOM     32  H   UNL d   1     -36.161 -21.975 -21.302  0.00  0.00     0.210 HD
ENDBRANCH   3  31
BRANCH   5  33
ATOM     33  O   UNL d   1     -36.079 -25.405 -22.119  0.00  0.00    -0.318 OA
BRANCH  33  34
ATOM     34  C   UNL d   1     -35.768 -26.054 -22.813  0.00  0.00     0.075 A 
ATOM     35  C   UNL d   1     -35.404 -26.944 -22.538  0.00  0.00     0.076 A 
ATOM     36  C   UNL d   1     -35.093 -27.593 -23.233  0.00  0.00     0.104 A 
ATOM     37  C   UNL d   1     -35.145 -27.352 -24.202  0.00  0.00     0.101 A 
ATOM     38  C   UNL d   1     -35.509 -26.462 -24.476  0.00  0.00     0.042 A 
ATOM     39  C   UNL d   1     -35.820 -25.813 -23.782  0.00  0.00     0.040 A 
BRANCH  36  40
ATOM     40  O   UNL d   1     -34.729 -28.483 -22.958  0.00  0.00    -0.353 OA
ATOM     41  C   UNL d   1     -34.544 -28.672 -21.993  0.00  0.00     0.210 C 
ENDBRANCH  36  40
BRANCH  37  42
ATOM     42  O   UNL d   1     -34.834 -28.001 -24.896  0.00  0.00    -0.353 OA
ATOM     43  C   UNL d   1     -34.642 -27.685 -25.825  0.00  0.00     0.210 C 
ENDBRANCH  37  42
ENDBRANCH  33  34
ENDBRANCH   5  33
BRANCH   4  44
ATOM     44  O   UNL d   1     -33.641 -22.493 -20.866  0.00  0.00    -0.390 OA
ATOM     45  H   UNL d   1     -33.804 -21.899 -20.940  0.00  0.00     0.210 HD
ENDBRANCH   4  44
BRANCH   6  46
ATOM     46  C   UNL d   1     -32.908 -24.313 -21.252  0.00  0.00     0.198 C 
BRANCH  46  47
ATOM     47  O   UNL d   1     -32.410 -24.841 -21.940  0.00  0.00    -0.398 OA
ATOM     48  H   UNL d   1     -32.497 -25.453 -21.985  0.00  0.00     0.209 HD
ENDBRANCH  46  47
ENDBRANCH   6  46
TORSDOF 18
ENDMDL
MODEL 4
REMARK VINA RESULT:    -8.302     22.311     25.621
REMARK INTER + INTRA:          -1.245
REMARK INTER:                 -15.592
REMARK INTRA:                  14.347
REMARK UNBOUND:                14.338
REMARK  18 active torsions:
REMARK  status: ('A' for Active; 'I' for Inactive)
REMARK    1  A    between atoms: C_17  and  O_1 
REMARK    2  A    between atoms: C_19  and  O_1 
REMARK    3  A    between atoms: C_16  and  O_4 
REMARK    4  A    between atoms: C_18  and  O_5 
REMARK    5  A    between atoms: C_20  and  O_6 
REMARK    6  A    between atoms: C_22  and  O_7 
REMARK    7  A    between atoms: O_7  and  C_27 
REMARK    8  A    between atoms: C_21  and  O_8 
REMARK    9  A    between atoms: O_9  and  C_25 
REMARK   10  A    between atoms: O_9  and  C_28 
REMARK   11  A    between atoms: O_10  and  C_26 
REMARK   12  A    between atoms: O_12  and  C_32 
REMARK   13  A    between atoms: O_13  and  C_34 
REMARK   14  A    between atoms: O_14  and  C_37 
REMARK   15  A    between atoms: O_15  and  C_39 
REMARK   16  A    between atoms: C_16  and  C_25 
REMARK   17  A    between atoms: C_24  and  C_26 
REMARK   18  A    between atoms: C_28  and  C_31 
ROOT
ATOM      1  O   UNL d   1     -40.992  -6.272 -11.810  0.00  0.00    -0.348 OA
ATOM      2  C   UNL d   1     -40.748  -4.736 -12.572  0.00  0.00     0.211 A 
ATOM      3  C   UNL d   1     -39.960  -5.106 -13.065  0.00  0.00     0.183 A 
ATOM      4  C   UNL d   1     -39.688  -6.058 -12.930  0.00  0.00     0.180 A 
ATOM      5  C   UNL d   1     -41.264  -5.320 -11.945  0.00  0.00     0.298 A 
ATOM      6  C   UNL d   1     -40.204  -6.642 -12.303  0.00  0.00     0.179 A 
ENDROOT
BRANCH   2   7
ATOM      7  O   UNL d   1     -41.020  -3.783 -12.707  0.00  0.00    -0.346 OA
BRANCH   7   8
ATOM      8  C   UNL d   1     -41.720  -3.554 -13.384  0.00  0.00     0.292 A 
ATOM      9  O   UNL d   1     -41.925  -4.070 -14.215  0.00  0.00    -0.355 OA
ATOM     10  C   UNL d   1     -42.670  -3.603 -14.693  0.00  0.00     0.213 A 
ATOM     11  C   UNL d   1     -42.925  -2.799 -14.156  0.00  0.00     0.131 A 
ATOM     12  C   UNL d   1     -42.338  -2.769 -13.347  0.00  0.00     0.211 A 
BRANCH  11  13
ATOM     13  O   UNL d   1     -43.625  -2.570 -14.832  0.00  0.00    -0.383 OA
ATOM     14  H   UNL d   1     -43.573  -2.777 -15.414  0.00  0.00     0.210 HD
ENDBRANCH  11  13
BRANCH  11  15
ATOM     15  C   UNL d   1     -43.384  -1.964 -13.855  0.00  0.00     0.221 C 
BRANCH  15  16
ATOM     16  O   UNL d   1     -44.380  -1.944 -13.769  0.00  0.00    -0.314 OA
BRANCH  16  17
ATOM     17  C   UNL d   1     -44.842  -1.100 -13.495  0.00  0.00     0.293 C 
ATOM     18  O   UNL d   1     -44.433  -0.214 -13.713  0.00  0.00    -0.259 OA
BRANCH  17  19
ATOM     19  C   UNL d   1     -45.712  -1.142 -13.004  0.00  0.00     0.042 A 
ATOM     20  C   UNL d   1     -46.549  -0.812 -13.441  0.00  0.00     0.057 A 
ATOM     21  C   UNL d   1     -47.419  -0.854 -12.949  0.00  0.00     0.102 A 
ATOM     22  C   UNL d   1     -47.452  -1.227 -12.022  0.00  0.00     0.099 A 
ATOM     23  C   UNL d   1     -46.615  -1.557 -11.586  0.00  0.00     0.040 A 
ATOM     24  C   UNL d   1     -45.745  -1.515 -12.077  0.00  0.00     0.020 A 
BRANCH  21  25
ATOM     25  O   UNL d   1     -48.256  -0.524 -13.386  0.00  0.00    -0.353 OA
ATOM     26  C   UNL d   1     -48.202   0.029 -14.218  0.00  0.00     0.210 C 
ENDBRANCH  21  25
BRANCH  22  27
ATOM     27  O   UNL d   1     -48.322  -1.270 -11.531  0.00  0.00    -0.358 OA
ATOM     28  H   UNL d   1     -48.832  -1.020 -11.782  0.00  0.00     0.217 HD
ENDBRANCH  22  27
ENDBRANCH  17  19
ENDBRANCH  16  17
ENDBRANCH  15  16
ENDBRANCH  11  15
BRANCH  12  29
ATOM     29  O   UNL d   1     -42.365  -2.075 -12.628  0.00  0.00    -0.387 OA
ATOM     30  H   UNL d   1     -42.701  -1.559 -12.706  0.00  0.00     0.210 HD
ENDBRANCH  12  29
ENDBRANCH   7   8
ENDBRANCH   2   7
BRANCH   3  31
ATOM     31  O   UNL d   1     -39.444  -4.522 -13.692  0.00  0.00    -0.390 OA
ATOM     32  H   UNL d   1     -39.675  -3.974 -13.867  0.00  0.00     0.210 HD
ENDBRANCH   3  31
BRANCH   5  33
ATOM     33  O   UNL d   1     -42.052  -4.950 -11.453  0.00  0.00    -0.318 OA
BRANCH  33  34
ATOM     34  C   UNL d   1     -42.226  -5.227 -10.508  0.00  0.00     0.075 A 
ATOM     35  C   UNL d   1     -42.886  -5.952 -10.312  0.00  0.00     0.076 A 
ATOM     36  C   UNL d   1     -43.059  -6.228  -9.367  0.00  0.00     0.104 A 
ATOM     37  C   UNL d   1     -42.573  -5.780  -8.617  0.00  0.00     0.101 A 
ATOM     38  C   UNL d   1     -41.912  -5.055  -8.813  0.00  0.00     0.042 A 
ATOM     39  C   UNL d   1     -41.739  -4.778  -9.758  0.00  0.00     0.040 A 
BRANCH  36  40
ATOM     40  O   UNL d   1     -43.719  -6.953  -9.171  0.00  0.00    -0.353 OA
ATOM     41  C   UNL d   1     -44.344  -7.267  -9.886  0.00  0.00     0.210 C 
ENDBRANCH  36  40
BRANCH  37  42
ATOM     42  O   UNL d   1     -42.746  -6.056  -7.672  0.00  0.00    -0.353 OA
ATOM     43  C   UNL d   1     -42.210  -5.658  -6.928  0.00  0.00     0.210 C 
ENDBRANCH  37  42
ENDBRANCH  33  34
ENDBRANCH   5  33
BRANCH   4  44
ATOM     44  O   UNL d   1     -38.900  -6.428 -13.422  0.00  0.00    -0.390 OA
ATOM     45  H   UNL d   1     -38.923  -6.999 -13.661  0.00  0.00     0.210 HD
ENDBRANCH   4  44
BRANCH   6  46
ATOM     46  C   UNL d   1     -39.932  -7.594 -12.168  0.00  0.00     0.198 C 
BRANCH  46  47
ATOM     47  O   UNL d   1     -39.584  -7.894 -11.280  0.00  0.00    -0.398 OA
ATOM     48  H   UNL d   1     -39.108  -7.596 -11.016  0.00  0.00     0.209 HD
ENDBRANCH  46  47
ENDBRANCH   6  46
TORSDOF 18
ENDMDL
MODEL 5
REMARK VINA RESULT:    -8.273     19.989     22.181
REMARK INTER + INTRA:          -1.189
REMARK INTER:                 -15.887
REMARK INTRA:                  14.698
REMARK UNBOUND:                14.338
REMARK  18 active torsions:
REMARK  status: ('A' for Active; 'I' for Inactive)
REMARK    1  A    between atoms: C_17  and  O_1 
REMARK    2  A    between atoms: C_19  and  O_1 
REMARK    3  A    between atoms: C_16  and  O_4 
REMARK    4  A    between atoms: C_18  and  O_5 
REMARK    5  A    between atoms: C_20  and  O_6 
REMARK    6  A    between atoms: C_22  and  O_7 
REMARK    7  A    between atoms: O_7  and  C_27 
REMARK    8  A    between atoms: C_21  and  O_8 
REMARK    9  A    between atoms: O_9  and  C_25 
REMARK   10  A    between atoms: O_9  and  C_28 
REMARK   11  A    between atoms: O_10  and  C_26 
REMARK   12  A    between atoms: O_12  and  C_32 
REMARK   13  A    between atoms: O_13  and  C_34 
REMARK   14  A    between atoms: O_14  and  C_37 
REMARK   15  A    between atoms: O_15  and  C_39 
REMARK   16  A    between atoms: C_16  and  C_25 
REMARK   17  A    between atoms: C_24  and  C_26 
REMARK   18  A    between atoms: C_28  and  C_31 
ROOT
ATOM      1  O   UNL d   1     -24.541 -24.872 -35.422  0.00  0.00    -0.348 OA
ATOM      2  C   UNL d   1     -23.613 -24.026 -36.614  0.00  0.00     0.211 A 
ATOM      3  C   UNL d   1     -23.604 -23.214 -36.030  0.00  0.00     0.183 A 
ATOM      4  C   UNL d   1     -24.063 -23.231 -35.142  0.00  0.00     0.180 A 
ATOM      5  C   UNL d   1     -24.081 -24.855 -36.309  0.00  0.00     0.298 A 
ATOM      6  C   UNL d   1     -24.532 -24.060 -34.838  0.00  0.00     0.179 A 
ENDROOT
BRANCH   2   7
ATOM      7  O   UNL d   1     -23.153 -24.008 -37.502  0.00  0.00    -0.346 OA
BRANCH   7   8
ATOM      8  C   UNL d   1     -23.581 -23.544 -38.277  0.00  0.00     0.292 A 
ATOM      9  O   UNL d   1     -24.563 -23.456 -38.441  0.00  0.00    -0.355 OA
ATOM     10  C   UNL d   1     -24.691 -22.944 -39.290  0.00  0.00     0.213 A 
ATOM     11  C   UNL d   1     -23.787 -22.716 -39.652  0.00  0.00     0.131 A 
ATOM     12  C   UNL d   1     -23.101 -23.087 -39.026  0.00  0.00     0.211 A 
BRANCH  11  13
ATOM     13  O   UNL d   1     -24.215 -22.252 -40.428  0.00  0.00    -0.383 OA
ATOM     14  H   UNL d   1     -23.968 -22.303 -40.994  0.00  0.00     0.210 HD
ENDBRANCH  11  13
BRANCH  11  15
ATOM     15  C   UNL d   1     -23.060 -22.355 -40.236  0.00  0.00     0.221 C 
BRANCH  15  16
ATOM     16  O   UNL d   1     -23.083 -21.400 -40.530  0.00  0.00    -0.314 OA
BRANCH  16  17
ATOM     17  C   UNL d   1     -22.318 -21.019 -41.050  0.00  0.00     0.293 C 
ATOM     18  O   UNL d   1     -21.862 -21.572 -41.747  0.00  0.00    -0.259 OA
BRANCH  17  19
ATOM     19  C   UNL d   1     -22.010 -20.084 -40.872  0.00  0.00     0.042 A 
ATOM     20  C   UNL d   1     -21.097 -19.921 -40.497  0.00  0.00     0.057 A 
ATOM     21  C   UNL d   1     -20.789 -18.987 -40.319  0.00  0.00     0.102 A 
ATOM     22  C   UNL d   1     -21.393 -18.215 -40.517  0.00  0.00     0.099 A 
ATOM     23  C   UNL d   1     -22.306 -18.378 -40.892  0.00  0.00     0.040 A 
ATOM     24  C   UNL d   1     -22.614 -19.312 -41.070  0.00  0.00     0.020 A 
BRANCH  21  25
ATOM     25  O   UNL d   1     -19.876 -18.824 -39.944  0.00  0.00    -0.353 OA
ATOM     26  C   UNL d   1     -19.228 -19.582 -39.857  0.00  0.00     0.210 C 
ENDBRANCH  21  25
BRANCH  22  27
ATOM     27  O   UNL d   1     -21.085 -17.281 -40.339  0.00  0.00    -0.358 OA
ATOM     28  H   UNL d   1     -21.197 -16.833 -40.754  0.00  0.00     0.217 HD
ENDBRANCH  22  27
ENDBRANCH  17  19
ENDBRANCH  16  17
ENDBRANCH  15  16
ENDBRANCH  11  15
BRANCH  12  29
ATOM     29  O   UNL d   1     -22.109 -23.013 -39.131  0.00  0.00    -0.387 OA
ATOM     30  H   UNL d   1     -21.854 -23.043 -39.696  0.00  0.00     0.210 HD
ENDBRANCH  12  29
ENDBRANCH   7   8
ENDBRANCH   2   7
BRANCH   3  31
ATOM     31  O   UNL d   1     -23.135 -22.384 -36.335  0.00  0.00    -0.390 OA
ATOM     32  H   UNL d   1     -23.464 -21.896 -36.528  0.00  0.00     0.210 HD
ENDBRANCH   3  31
BRANCH   5  33
ATOM     33  O   UNL d   1     -24.090 -25.667 -36.893  0.00  0.00    -0.318 OA
BRANCH  33  34
ATOM     34  C   UNL d   1     -24.092 -26.578 -36.481  0.00  0.00     0.075 A 
ATOM     35  C   UNL d   1     -24.928 -27.126 -36.484  0.00  0.00     0.076 A 
ATOM     36  C   UNL d   1     -24.930 -28.038 -36.072  0.00  0.00     0.104 A 
ATOM     37  C   UNL d   1     -24.096 -28.401 -35.658  0.00  0.00     0.101 A 
ATOM     38  C   UNL d   1     -23.259 -27.853 -35.656  0.00  0.00     0.042 A 
ATOM     39  C   UNL d   1     -23.257 -26.942 -36.068  0.00  0.00     0.040 A 
BRANCH  36  40
ATOM     40  O   UNL d   1     -25.767 -28.585 -36.074  0.00  0.00    -0.353 OA
ATOM     41  C   UNL d   1     -26.541 -28.314 -36.646  0.00  0.00     0.210 C 
ENDBRANCH  36  40
BRANCH  37  42
ATOM     42  O   UNL d   1     -24.097 -29.313 -35.247  0.00  0.00    -0.353 OA
ATOM     43  C   UNL d   1     -23.236 -29.738 -34.971  0.00  0.00     0.210 C 
ENDBRANCH  37  42
ENDBRANCH  33  34
ENDBRANCH   5  33
BRANCH   4  44
ATOM     44  O   UNL d   1     -24.054 -22.419 -34.559  0.00  0.00    -0.390 OA
ATOM     45  H   UNL d   1     -23.631 -21.975 -34.651  0.00  0.00     0.210 HD
ENDBRANCH   4  44
BRANCH   6  46
ATOM     46  C   UNL d   1     -24.992 -24.077 -33.950  0.00  0.00     0.198 C 
BRANCH  46  47
ATOM     47  O   UNL d   1     -24.994 -24.916 -33.405  0.00  0.00    -0.398 OA
ATOM     48  H   UNL d   1     -25.106 -24.889 -32.796  0.00  0.00     0.209 HD
ENDBRANCH  46  47
ENDBRANCH   6  46
TORSDOF 18
ENDMDL
