MODEL 1
REMARK VINA RESULT:    -4.835      0.000      0.000
REMARK INTER + INTRA:          -4.647
REMARK INTER:                  -5.955
REMARK INTRA:                   1.308
REMARK UNBOUND:                 1.318
REMARK  6 active torsions:
REMARK  status: ('A' for Active; 'I' for Inactive)
REMARK    1  A    between atoms: C_22  and  O_1 
REMARK    2  A    between atoms: C_24  and  O_2 
REMARK    3  A    between atoms: O_3  and  C_30 
REMARK    4  A    between atoms: O_4  and  C_33 
REMARK    5  A    between atoms: C_14  and  C_30 
REMARK    6  A    between atoms: C_19  and  C_33 
ROOT
ATOM      1  C   UNL d   1      21.909 -24.121  48.719  0.00  0.00    -0.028 A 
ATOM      2  C   UNL d   1      22.745 -23.573  48.753  0.00  0.00     0.007 A 
ATOM      3  C   UNL d   1      22.723 -22.584  49.078  0.00  0.00    -0.033 A 
ATOM      4  C   UNL d   1      21.945 -25.070  48.405  0.00  0.00    -0.013 A 
ATOM      5  C   UNL d   1      21.819 -22.159  49.371  0.00  0.00     0.007 A 
ATOM      6  C   UNL d   1      20.994 -23.717  49.007  0.00  0.00     0.011 A 
ATOM      7  C   UNL d   1      22.818 -25.471  48.126  0.00  0.00    -0.069 A 
ATOM      8  C   UNL d   1      20.948 -22.730  49.335  0.00  0.00     0.007 A 
ATOM      9  C   UNL d   1      21.771 -21.130  49.712  0.00  0.00     0.010 A 
ATOM     10  C   UNL d   1      22.871 -26.458  47.796  0.00  0.00     0.038 A 
ATOM     11  C   UNL d   1      23.617 -23.975  48.473  0.00  0.00     0.033 A 
ATOM     12  C   UNL d   1      23.643 -22.009  49.106  0.00  0.00     0.044 A 
ATOM     13  C   UNL d   1      21.066 -25.628  48.376  0.00  0.00     0.016 A 
ATOM     14  C   UNL d   1      22.005 -27.035  47.758  0.00  0.00     0.053 A 
ATOM     15  C   UNL d   1      20.944 -24.369  48.805  0.00  0.00     0.016 C 
ATOM     16  C   UNL d   1      21.096 -26.617  48.050  0.00  0.00     0.022 A 
ATOM     17  C   UNL d   1      22.678 -20.536  49.749  0.00  0.00     0.157 A 
ATOM     18  C   UNL d   1      23.654 -24.923  48.159  0.00  0.00    -0.022 A 
ATOM     19  C   UNL d   1      23.620 -20.978  49.444  0.00  0.00     0.148 A 
ATOM     20  C   UNL d   1      23.592 -22.992  48.796  0.00  0.00     0.016 C 
ATOM     21  C   UNL d   1      20.968 -24.988  48.600  0.00  0.00     0.021 C 
ATOM     22  C   UNL d   1      23.829 -26.871  47.498  0.00  0.00    -0.005 A 
ATOM     23  C   UNL d   1      22.036 -28.065  47.419  0.00  0.00     0.021 A 
ATOM     24  C   UNL d   1      23.884 -27.899  47.155  0.00  0.00    -0.014 A 
ATOM     25  C   UNL d   1      20.785 -21.219  49.853  0.00  0.00     0.020 C 
ATOM     26  C   UNL d   1      22.982 -28.500  47.116  0.00  0.00     0.006 A 
ATOM     27  C   UNL d   1      24.655 -26.308  47.538  0.00  0.00     0.011 C 
ATOM     28  C   UNL d   1      24.762 -28.290  46.878  0.00  0.00     0.010 C 
ENDROOT
BRANCH   9  29
ATOM     29  C   UNL d   1      21.243 -20.353  50.055  0.00  0.00     0.176 C 
BRANCH  29  30
ATOM     30  O   UNL d   1      20.246 -20.355  49.983  0.00  0.00    -0.400 OA
ATOM     31  H   UNL d   1      19.942 -20.889  49.897  0.00  0.00     0.209 HD
ENDBRANCH  29  30
ENDBRANCH   9  29
BRANCH  17  32
ATOM     32  O   UNL d   1      22.646 -19.587  50.062  0.00  0.00    -0.392 OA
ATOM     33  H   UNL d   1      23.171 -19.264  50.129  0.00  0.00     0.210 HD
ENDBRANCH  17  32
BRANCH  19  34
ATOM     34  O   UNL d   1      24.462 -20.440  49.474  0.00  0.00    -0.393 OA
ATOM     35  H   UNL d   1      24.551 -19.979  49.068  0.00  0.00     0.210 HD
ENDBRANCH  19  34
BRANCH  14  36
ATOM     36  C   UNL d   1      21.173 -27.589  47.722  0.00  0.00     0.149 C 
ATOM     37  O   UNL d   1      20.617 -27.600  46.891  0.00  0.00    -0.649 OA
BRANCH  36  38
ATOM     38  O   UNL d   1      20.898 -28.131  48.515  0.00  0.00    -0.776 OA
ATOM     39  H   UNL d   1      20.383 -28.475  48.491  0.00  0.00     0.167 HD
ENDBRANCH  36  38
ENDBRANCH  14  36
TORSDOF 6
ENDMDL
MODEL 2
REMARK VINA RESULT:    -4.329      1.654      5.216
REMARK INTER + INTRA:          -4.023
REMARK INTER:                  -5.334
REMARK INTRA:                   1.311
REMARK UNBOUND:                 1.318
REMARK  6 active torsions:
REMARK  status: ('A' for Active; 'I' for Inactive)
REMARK    1  A    between atoms: C_22  and  O_1 
REMARK    2  A    between atoms: C_24  and  O_2 
REMARK    3  A    between atoms: O_3  and  C_30 
REMARK    4  A    between atoms: O_4  and  C_33 
REMARK    5  A    between atoms: C_14  and  C_30 
REMARK    6  A    between atoms: C_19  and  C_33 
ROOT
ATOM      1  C   UNL d   1      21.789 -24.867  48.618  0.00  0.00    -0.028 A 
ATOM      2  C   UNL d   1      21.838 -25.780  48.213  0.00  0.00     0.007 A 
ATOM      3  C   UNL d   1      21.000 -26.398  48.184  0.00  0.00    -0.033 A 
ATOM      4  C   UNL d   1      22.602 -24.285  48.639  0.00  0.00    -0.013 A 
ATOM      5  C   UNL d   1      20.099 -26.060  48.581  0.00  0.00     0.007 A 
ATOM      6  C   UNL d   1      20.898 -24.508  49.020  0.00  0.00     0.011 A 
ATOM      7  C   UNL d   1      23.464 -24.617  48.256  0.00  0.00    -0.069 A 
ATOM      8  C   UNL d   1      20.047 -25.108  49.002  0.00  0.00     0.007 A 
ATOM      9  C   UNL d   1      19.212 -26.685  48.562  0.00  0.00     0.010 A 
ATOM     10  C   UNL d   1      24.320 -24.022  48.270  0.00  0.00     0.038 A 
ATOM     11  C   UNL d   1      22.700 -26.112  47.830  0.00  0.00     0.033 A 
ATOM     12  C   UNL d   1      21.077 -27.385  47.741  0.00  0.00     0.044 A 
ATOM     13  C   UNL d   1      22.535 -23.336  49.063  0.00  0.00     0.016 A 
ATOM     14  C   UNL d   1      24.276 -23.070  48.690  0.00  0.00     0.053 A 
ATOM     15  C   UNL d   1      21.412 -24.058  49.069  0.00  0.00     0.016 C 
ATOM     16  C   UNL d   1      23.378 -22.724  49.089  0.00  0.00     0.022 A 
ATOM     17  C   UNL d   1      19.265 -27.676  48.124  0.00  0.00     0.157 A 
ATOM     18  C   UNL d   1      23.513 -25.530  47.852  0.00  0.00    -0.022 A 
ATOM     19  C   UNL d   1      20.204 -28.028  47.710  0.00  0.00     0.148 A 
ATOM     20  C   UNL d   1      21.865 -26.722  47.803  0.00  0.00     0.016 C 
ATOM     21  C   UNL d   1      21.942 -23.678  49.083  0.00  0.00     0.021 C 
ATOM     22  C   UNL d   1      25.243 -24.403  47.849  0.00  0.00    -0.005 A 
ATOM     23  C   UNL d   1      25.154 -22.432  48.717  0.00  0.00     0.021 A 
ATOM     24  C   UNL d   1      26.134 -23.784  47.864  0.00  0.00    -0.014 A 
ATOM     25  C   UNL d   1      18.689 -25.964  49.016  0.00  0.00     0.020 C 
ATOM     26  C   UNL d   1      26.089 -22.792  48.301  0.00  0.00     0.006 A 
ATOM     27  C   UNL d   1      25.274 -25.320  47.449  0.00  0.00     0.011 C 
ATOM     28  C   UNL d   1      26.991 -24.126  47.478  0.00  0.00     0.010 C 
ENDROOT
BRANCH   9  29
ATOM     29  C   UNL d   1      18.245 -26.826  48.772  0.00  0.00     0.176 C 
BRANCH  29  30
ATOM     30  O   UNL d   1      17.821 -26.333  49.532  0.00  0.00    -0.400 OA
ATOM     31  H   UNL d   1      17.468 -25.836  49.421  0.00  0.00     0.209 HD
ENDBRANCH  29  30
ENDBRANCH   9  29
BRANCH  17  32
ATOM     32  O   UNL d   1      18.454 -28.260  48.100  0.00  0.00    -0.392 OA
ATOM     33  H   UNL d   1      18.514 -28.876  48.153  0.00  0.00     0.210 HD
ENDBRANCH  17  32
BRANCH  19  34
ATOM     34  O   UNL d   1      20.264 -28.940  47.304  0.00  0.00    -0.393 OA
ATOM     35  H   UNL d   1      20.019 -29.047  46.744  0.00  0.00     0.210 HD
ENDBRANCH  19  34
BRANCH  14  36
ATOM     36  C   UNL d   1      24.235 -22.155  49.092  0.00  0.00     0.149 C 
ATOM     37  O   UNL d   1      24.447 -22.026  50.061  0.00  0.00    -0.649 OA
BRANCH  36  38
ATOM     38  O   UNL d   1      23.982 -21.371  48.527  0.00  0.00    -0.776 OA
ATOM     39  H   UNL d   1      23.466 -21.390  48.183  0.00  0.00     0.167 HD
ENDBRANCH  36  38
ENDBRANCH  14  36
TORSDOF 6
ENDMDL
MODEL 3
REMARK VINA RESULT:    -4.289      1.849      5.437
REMARK INTER + INTRA:          -3.974
REMARK INTER:                  -5.305
REMARK INTRA:                   1.331
REMARK UNBOUND:                 1.318
REMARK  6 active torsions:
REMARK  status: ('A' for Active; 'I' for Inactive)
REMARK    1  A    between atoms: C_22  and  O_1 
REMARK    2  A    between atoms: C_24  and  O_2 
REMARK    3  A    between atoms: O_3  and  C_30 
REMARK    4  A    between atoms: O_4  and  C_33 
REMARK    5  A    between atoms: C_14  and  C_30 
REMARK    6  A    between atoms: C_19  and  C_33 
ROOT
ATOM      1  C   UNL d   1      22.351 -24.629  48.404  0.00  0.00    -0.028 A 
ATOM      2  C   UNL d   1      23.305 -24.332  48.387  0.00  0.00     0.007 A 
ATOM      3  C   UNL d   1      24.064 -24.987  48.104  0.00  0.00    -0.033 A 
ATOM      4  C   UNL d   1      21.633 -23.989  48.677  0.00  0.00    -0.013 A 
ATOM      5  C   UNL d   1      23.826 -25.964  47.836  0.00  0.00     0.007 A 
ATOM      6  C   UNL d   1      22.089 -25.602  48.140  0.00  0.00     0.011 A 
ATOM      7  C   UNL d   1      21.869 -23.052  48.933  0.00  0.00    -0.069 A 
ATOM      8  C   UNL d   1      22.832 -26.274  47.854  0.00  0.00     0.007 A 
ATOM      9  C   UNL d   1      24.600 -26.665  47.538  0.00  0.00     0.010 A 
ATOM     10  C   UNL d   1      21.132 -22.374  49.220  0.00  0.00     0.038 A 
ATOM     11  C   UNL d   1      23.542 -23.394  48.643  0.00  0.00     0.033 A 
ATOM     12  C   UNL d   1      25.093 -24.641  48.093  0.00  0.00     0.044 A 
ATOM     13  C   UNL d   1      20.643 -24.314  48.691  0.00  0.00     0.016 A 
ATOM     14  C   UNL d   1      20.135 -22.676  49.241  0.00  0.00     0.053 A 
ATOM     15  C   UNL d   1      21.549 -25.220  48.316  0.00  0.00     0.016 C 
ATOM     16  C   UNL d   1      19.889 -23.653  48.974  0.00  0.00     0.022 A 
ATOM     17  C   UNL d   1      25.635 -26.342  47.520  0.00  0.00     0.157 A 
ATOM     18  C   UNL d   1      22.823 -22.754  48.916  0.00  0.00    -0.022 A 
ATOM     19  C   UNL d   1      25.884 -25.324  47.799  0.00  0.00     0.148 A 
ATOM     20  C   UNL d   1      24.293 -24.048  48.361  0.00  0.00     0.016 C 
ATOM     21  C   UNL d   1      21.080 -24.803  48.494  0.00  0.00     0.021 C 
ATOM     22  C   UNL d   1      21.412 -21.363  49.494  0.00  0.00    -0.005 A 
ATOM     23  C   UNL d   1      19.350 -21.988  49.536  0.00  0.00     0.021 A 
ATOM     24  C   UNL d   1      20.645 -20.656  49.792  0.00  0.00    -0.014 A 
ATOM     25  C   UNL d   1      23.909 -27.375  47.402  0.00  0.00     0.020 C 
ATOM     26  C   UNL d   1      19.607 -20.971  49.814  0.00  0.00     0.006 A 
ATOM     27  C   UNL d   1      22.373 -21.082  49.470  0.00  0.00     0.011 C 
ATOM     28  C   UNL d   1      20.893 -19.721  50.046  0.00  0.00     0.010 C 
ENDROOT
BRANCH   9  29
ATOM     29  C   UNL d   1      24.874 -27.576  47.233  0.00  0.00     0.176 C 
BRANCH  29  30
ATOM     30  O   UNL d   1      24.179 -28.251  46.987  0.00  0.00    -0.400 OA
ATOM     31  H   UNL d   1      24.199 -28.529  46.432  0.00  0.00     0.209 HD
ENDBRANCH  29  30
ENDBRANCH   9  29
BRANCH  17  32
ATOM     32  O   UNL d   1      26.356 -26.979  47.247  0.00  0.00    -0.392 OA
ATOM     33  H   UNL d   1      26.944 -26.872  47.413  0.00  0.00     0.210 HD
ENDBRANCH  17  32
BRANCH  19  34
ATOM     34  O   UNL d   1      26.835 -25.015  47.785  0.00  0.00    -0.393 OA
ATOM     35  H   UNL d   1      27.086 -24.808  47.257  0.00  0.00     0.210 HD
ENDBRANCH  19  34
BRANCH  14  36
ATOM     36  C   UNL d   1      19.179 -22.967  49.261  0.00  0.00     0.149 C 
ATOM     37  O   UNL d   1      18.585 -22.782  48.477  0.00  0.00    -0.649 OA
BRANCH  36  38
ATOM     38  O   UNL d   1      18.816 -23.441  50.062  0.00  0.00    -0.776 OA
ATOM     39  H   UNL d   1      18.209 -23.418  50.188  0.00  0.00     0.167 HD
ENDBRANCH  36  38
ENDBRANCH  14  36
TORSDOF 6
ENDMDL
MODEL 4
REMARK VINA RESULT:    -3.970     12.739     15.037
REMARK INTER + INTRA:          -3.580
REMARK INTER:                  -4.887
REMARK INTRA:                   1.307
REMARK UNBOUND:                 1.318
REMARK  6 active torsions:
REMARK  status: ('A' for Active; 'I' for Inactive)
REMARK    1  A    between atoms: C_22  and  O_1 
REMARK    2  A    between atoms: C_24  and  O_2 
REMARK    3  A    between atoms: O_3  and  C_30 
REMARK    4  A    between atoms: O_4  and  C_33 
REMARK    5  A    between atoms: C_14  and  C_30 
REMARK    6  A    between atoms: C_19  and  C_33 
ROOT
ATOM      1  C   UNL d   1      14.215 -12.285  49.224  0.00  0.00    -0.028 A 
ATOM      2  C   UNL d   1      14.224 -13.257  48.990  0.00  0.00     0.007 A 
ATOM      3  C   UNL d   1      13.382 -13.852  49.140  0.00  0.00    -0.033 A 
ATOM      4  C   UNL d   1      15.031 -11.727  49.075  0.00  0.00    -0.013 A 
ATOM      5  C   UNL d   1      12.519 -13.428  49.540  0.00  0.00     0.007 A 
ATOM      6  C   UNL d   1      13.363 -11.840  49.625  0.00  0.00     0.011 A 
ATOM      7  C   UNL d   1      15.856 -12.141  48.690  0.00  0.00    -0.069 A 
ATOM      8  C   UNL d   1      12.509 -12.415  49.784  0.00  0.00     0.007 A 
ATOM      9  C   UNL d   1      11.629 -14.027  49.705  0.00  0.00     0.010 A 
ATOM     10  C   UNL d   1      16.714 -11.573  48.529  0.00  0.00     0.038 A 
ATOM     11  C   UNL d   1      15.050 -13.671  48.605  0.00  0.00     0.033 A 
ATOM     12  C   UNL d   1      13.415 -14.904  48.878  0.00  0.00     0.044 A 
ATOM     13  C   UNL d   1      15.006 -10.716  49.324  0.00  0.00     0.016 A 
ATOM     14  C   UNL d   1      16.712 -10.559  48.771  0.00  0.00     0.053 A 
ATOM     15  C   UNL d   1      13.883 -11.400  49.550  0.00  0.00     0.016 C 
ATOM     16  C   UNL d   1      15.852 -10.128  49.171  0.00  0.00     0.022 A 
ATOM     17  C   UNL d   1      11.639 -15.081  49.451  0.00  0.00     0.157 A 
ATOM     18  C   UNL d   1      15.866 -13.113  48.456  0.00  0.00    -0.022 A 
ATOM     19  C   UNL d   1      12.538 -15.523  49.034  0.00  0.00     0.148 A 
ATOM     20  C   UNL d   1      14.211 -14.258  48.756  0.00  0.00     0.016 C 
ATOM     21  C   UNL d   1      14.415 -11.036  49.453  0.00  0.00     0.021 C 
ATOM     22  C   UNL d   1      17.597 -12.043  48.111  0.00  0.00    -0.005 A 
ATOM     23  C   UNL d   1      17.594  -9.947  48.611  0.00  0.00     0.021 A 
ATOM     24  C   UNL d   1      18.491 -11.451  47.942  0.00  0.00    -0.014 A 
ATOM     25  C   UNL d   1      11.151 -13.224  50.062  0.00  0.00     0.020 C 
ATOM     26  C   UNL d   1      18.489 -10.396  48.194  0.00  0.00     0.006 A 
ATOM     27  C   UNL d   1      17.589 -13.018  47.882  0.00  0.00     0.011 C 
ATOM     28  C   UNL d   1      19.310 -11.876  47.557  0.00  0.00     0.010 C 
ENDROOT
BRANCH   9  29
ATOM     29  C   UNL d   1      10.682 -14.106  50.014  0.00  0.00     0.176 C 
BRANCH  29  30
ATOM     30  O   UNL d   1      10.096 -13.297  50.043  0.00  0.00    -0.400 OA
ATOM     31  H   UNL d   1       9.485 -13.353  49.952  0.00  0.00     0.209 HD
ENDBRANCH  29  30
ENDBRANCH   9  29
BRANCH  17  32
ATOM     32  O   UNL d   1      10.825 -15.643  49.599  0.00  0.00    -0.392 OA
ATOM     33  H   UNL d   1      10.684 -16.096  49.200  0.00  0.00     0.210 HD
ENDBRANCH  17  32
BRANCH  19  34
ATOM     34  O   UNL d   1      12.558 -16.494  48.796  0.00  0.00    -0.393 OA
ATOM     35  H   UNL d   1      12.251 -16.697  48.297  0.00  0.00     0.210 HD
ENDBRANCH  19  34
BRANCH  14  36
ATOM     36  C   UNL d   1      16.711  -9.587  49.003  0.00  0.00     0.149 C 
ATOM     37  O   UNL d   1      16.458  -8.909  48.312  0.00  0.00    -0.649 OA
BRANCH  36  38
ATOM     38  O   UNL d   1      16.962  -9.292  49.924  0.00  0.00    -0.776 OA
ATOM     39  H   UNL d   1      16.575  -9.392  50.398  0.00  0.00     0.167 HD
ENDBRANCH  36  38
ENDBRANCH  14  36
TORSDOF 6
ENDMDL
MODEL 5
REMARK VINA RESULT:    -3.677     13.336     16.671
REMARK INTER + INTRA:          -3.219
REMARK INTER:                  -4.528
REMARK INTRA:                   1.309
REMARK UNBOUND:                 1.318
REMARK  6 active torsions:
REMARK  status: ('A' for Active; 'I' for Inactive)
REMARK    1  A    between atoms: C_22  and  O_1 
REMARK    2  A    between atoms: C_24  and  O_2 
REMARK    3  A    between atoms: O_3  and  C_30 
REMARK    4  A    between atoms: O_4  and  C_33 
REMARK    5  A    between atoms: C_14  and  C_30 
REMARK    6  A    between atoms: C_19  and  C_33 
ROOT
ATOM      1  C   UNL d   1      14.626 -11.379  49.163  0.00  0.00    -0.028 A 
ATOM      2  C   UNL d   1      13.651 -11.313  49.374  0.00  0.00     0.007 A 
ATOM      3  C   UNL d   1      13.071 -12.170  49.494  0.00  0.00    -0.033 A 
ATOM      4  C   UNL d   1      15.171 -10.547  49.051  0.00  0.00    -0.013 A 
ATOM      5  C   UNL d   1      13.513 -13.107  49.393  0.00  0.00     0.007 A 
ATOM      6  C   UNL d   1      15.089 -12.305  49.058  0.00  0.00     0.011 A 
ATOM      7  C   UNL d   1      14.740  -9.650  49.149  0.00  0.00    -0.069 A 
ATOM      8  C   UNL d   1      14.529 -13.176  49.174  0.00  0.00     0.007 A 
ATOM      9  C   UNL d   1      12.929 -14.014  49.514  0.00  0.00     0.010 A 
ATOM     10  C   UNL d   1      15.293  -8.775  49.035  0.00  0.00     0.038 A 
ATOM     11  C   UNL d   1      13.220 -10.416  49.473  0.00  0.00     0.033 A 
ATOM     12  C   UNL d   1      12.015 -12.074  49.723  0.00  0.00     0.044 A 
ATOM     13  C   UNL d   1      16.186 -10.632  48.831  0.00  0.00     0.016 A 
ATOM     14  C   UNL d   1      16.310  -8.836  48.815  0.00  0.00     0.053 A 
ATOM     15  C   UNL d   1      15.521 -11.782  48.968  0.00  0.00     0.016 C 
ATOM     16  C   UNL d   1      16.759  -9.771  48.712  0.00  0.00     0.022 A 
ATOM     17  C   UNL d   1      11.871 -13.943  49.743  0.00  0.00     0.157 A 
ATOM     18  C   UNL d   1      13.764  -9.585  49.360  0.00  0.00    -0.022 A 
ATOM     19  C   UNL d   1      11.411 -12.967  49.848  0.00  0.00     0.148 A 
ATOM     20  C   UNL d   1      12.647 -11.270  49.591  0.00  0.00     0.016 C 
ATOM     21  C   UNL d   1      15.876 -11.239  48.894  0.00  0.00     0.021 C 
ATOM     22  C   UNL d   1      14.804  -7.814  49.146  0.00  0.00    -0.005 A 
ATOM     23  C   UNL d   1      16.907  -7.939  48.691  0.00  0.00     0.021 A 
ATOM     24  C   UNL d   1      15.381  -6.903  49.027  0.00  0.00    -0.014 A 
ATOM     25  C   UNL d   1      13.743 -14.567  49.335  0.00  0.00     0.020 C 
ATOM     26  C   UNL d   1      16.440  -6.966  48.798  0.00  0.00     0.006 A 
ATOM     27  C   UNL d   1      13.827  -7.767  49.357  0.00  0.00     0.011 C 
ATOM     28  C   UNL d   1      14.940  -6.011  49.128  0.00  0.00     0.010 C 
ENDROOT
BRANCH   9  29
ATOM     29  C   UNL d   1      12.868 -15.012  49.521  0.00  0.00     0.176 C 
BRANCH  29  30
ATOM     30  O   UNL d   1      13.697 -15.564  49.612  0.00  0.00    -0.400 OA
ATOM     31  H   UNL d   1      14.096 -15.450  50.072  0.00  0.00     0.209 HD
ENDBRANCH  29  30
ENDBRANCH   9  29
BRANCH  17  32
ATOM     32  O   UNL d   1      11.324 -14.772  49.856  0.00  0.00    -0.392 OA
ATOM     33  H   UNL d   1      10.780 -14.746  50.153  0.00  0.00     0.210 HD
ENDBRANCH  17  32
BRANCH  19  34
ATOM     34  O   UNL d   1      10.437 -12.889  50.059  0.00  0.00    -0.393 OA
ATOM     35  H   UNL d   1      10.083 -12.487  49.748  0.00  0.00     0.210 HD
ENDBRANCH  19  34
BRANCH  14  36
ATOM     36  C   UNL d   1      17.286  -8.894  48.604  0.00  0.00     0.149 C 
ATOM     37  O   UNL d   1      17.954  -8.958  49.345  0.00  0.00    -0.649 OA
BRANCH  36  38
ATOM     38  O   UNL d   1      17.593  -8.886  47.652  0.00  0.00    -0.776 OA
ATOM     39  H   UNL d   1      17.834  -9.399  47.401  0.00  0.00     0.167 HD
ENDBRANCH  36  38
ENDBRANCH  14  36
TORSDOF 6
ENDMDL
