MODEL 1
REMARK VINA RESULT:   -10.107      0.000      0.000
REMARK INTER + INTRA:          -2.466
REMARK INTER:                 -13.395
REMARK INTRA:                  10.930
REMARK UNBOUND:                10.596
REMARK  5 active torsions:
REMARK  status: ('A' for Active; 'I' for Inactive)
REMARK    1  A    between atoms: C_6  and  C_13 
REMARK    2  A    between atoms: C_13  and  C_19 
REMARK    3  A    between atoms: C_19  and  C_24 
REMARK    4  A    between atoms: C_24  and  C_25 
REMARK    5  A    between atoms: C_25  and  C_26 
ROOT
ATOM      1  O   UNL d   1      -9.175 -41.071   5.816  0.00  0.00    -0.293 OA
ATOM      2  C   UNL d   1     -13.741 -45.196   6.552  0.00  0.00    -0.036 A 
ATOM      3  C   UNL d   1     -12.902 -45.468   6.081  0.00  0.00    -0.002 A 
ATOM      4  C   UNL d   1     -12.161 -44.808   5.958  0.00  0.00    -0.004 A 
ATOM      5  C   UNL d   1     -12.258 -43.876   6.306  0.00  0.00     0.002 A 
ATOM      6  C   UNL d   1     -14.348 -45.982   6.572  0.00  0.00    -0.002 A 
ATOM      7  C   UNL d   1     -13.838 -44.263   6.900  0.00  0.00     0.010 A 
ATOM      8  C   UNL d   1     -12.998 -46.421   5.814  0.00  0.00     0.006 A 
ATOM      9  C   UNL d   1     -11.495 -43.178   6.186  0.00  0.00    -0.016 A 
ATOM     10  C   UNL d   1     -13.097 -43.604   6.777  0.00  0.00     0.007 A 
ATOM     11  C   UNL d   1     -13.890 -46.738   6.117  0.00  0.00     0.006 A 
ATOM     12  C   UNL d   1     -11.292 -45.107   5.465  0.00  0.00     0.010 A 
ATOM     13  C   UNL d   1     -14.580 -44.923   7.023  0.00  0.00     0.016 C 
ATOM     14  C   UNL d   1     -10.617 -43.454   5.696  0.00  0.00    -0.068 A 
ATOM     15  C   UNL d   1     -10.516 -44.426   5.333  0.00  0.00     0.035 A 
ATOM     16  C   UNL d   1     -11.623 -42.172   6.572  0.00  0.00     0.022 A 
ATOM     17  C   UNL d   1     -12.336 -42.913   6.656  0.00  0.00     0.020 C 
ATOM     18  C   UNL d   1     -10.828 -41.445   6.447  0.00  0.00     0.084 A 
ATOM     19  C   UNL d   1      -9.808 -42.745   5.559  0.00  0.00     0.053 A 
ATOM     20  C   UNL d   1      -9.915 -41.733   5.937  0.00  0.00     0.149 A 
ENDROOT
BRANCH   6  21
ATOM     21  C   UNL d   1     -15.261 -46.009   6.979  0.00  0.00    -0.014 C 
ATOM     22  C   UNL d   1     -15.964 -45.368   6.672  0.00  0.00     0.010 C 
BRANCH  21  23
ATOM     23  C   UNL d   1     -15.471 -46.677   7.694  0.00  0.00     0.005 C 
BRANCH  23  24
ATOM     24  C   UNL d   1     -16.422 -46.902   7.904  0.00  0.00     0.005 C 
BRANCH  24  25
ATOM     25  C   UNL d   1     -16.640 -47.751   8.385  0.00  0.00    -0.015 C 
ATOM     26  C   UNL d   1     -15.906 -48.310   8.769  0.00  0.00     0.010 C 
BRANCH  25  27
ATOM     27  C   UNL d   1     -17.592 -48.041   8.480  0.00  0.00    -0.019 C 
ATOM     28  C   UNL d   1     -18.051 -48.507   7.723  0.00  0.00     0.010 C 
ATOM     29  C   UNL d   1     -18.087 -47.864   9.332  0.00  0.00     0.010 C 
ENDBRANCH  25  27
ENDBRANCH  24  25
ENDBRANCH  23  24
ENDBRANCH  21  23
ENDBRANCH   6  21
TORSDOF 5
ENDMDL
MODEL 2
REMARK VINA RESULT:    -9.574     25.070     27.121
REMARK INTER + INTRA:          -1.776
REMARK INTER:                 -12.193
REMARK INTRA:                  10.417
REMARK UNBOUND:                10.596
REMARK  5 active torsions:
REMARK  status: ('A' for Active; 'I' for Inactive)
REMARK    1  A    between atoms: C_6  and  C_13 
REMARK    2  A    between atoms: C_13  and  C_19 
REMARK    3  A    between atoms: C_19  and  C_24 
REMARK    4  A    between atoms: C_24  and  C_25 
REMARK    5  A    between atoms: C_25  and  C_26 
ROOT
ATOM      1  O   UNL d   1     -21.411 -35.436  23.940  0.00  0.00    -0.293 OA
ATOM      2  C   UNL d   1     -23.214 -34.103  29.718  0.00  0.00    -0.036 A 
ATOM      3  C   UNL d   1     -22.315 -33.801  29.400  0.00  0.00    -0.002 A 
ATOM      4  C   UNL d   1     -22.017 -34.012  28.469  0.00  0.00    -0.004 A 
ATOM      5  C   UNL d   1     -22.617 -34.525  27.856  0.00  0.00     0.002 A 
ATOM      6  C   UNL d   1     -23.322 -33.800  30.658  0.00  0.00    -0.002 A 
ATOM      7  C   UNL d   1     -23.814 -34.616  29.104  0.00  0.00     0.010 A 
ATOM      8  C   UNL d   1     -21.876 -33.314  30.147  0.00  0.00     0.006 A 
ATOM      9  C   UNL d   1     -22.320 -34.753  26.884  0.00  0.00    -0.016 A 
ATOM     10  C   UNL d   1     -23.516 -34.827  28.174  0.00  0.00     0.007 A 
ATOM     11  C   UNL d   1     -22.497 -33.313  30.923  0.00  0.00     0.006 A 
ATOM     12  C   UNL d   1     -21.077 -33.691  28.153  0.00  0.00     0.010 A 
ATOM     13  C   UNL d   1     -24.113 -34.405  30.035  0.00  0.00     0.016 C 
ATOM     14  C   UNL d   1     -21.385 -34.441  26.546  0.00  0.00    -0.068 A 
ATOM     15  C   UNL d   1     -20.759 -33.907  27.184  0.00  0.00     0.035 A 
ATOM     16  C   UNL d   1     -22.989 -35.311  26.236  0.00  0.00     0.022 A 
ATOM     17  C   UNL d   1     -23.218 -35.051  27.209  0.00  0.00     0.020 C 
ATOM     18  C   UNL d   1     -22.680 -35.548  25.224  0.00  0.00     0.084 A 
ATOM     19  C   UNL d   1     -21.054 -34.666  25.538  0.00  0.00     0.053 A 
ATOM     20  C   UNL d   1     -21.706 -35.223  24.872  0.00  0.00     0.149 A 
ENDROOT
BRANCH   6  21
ATOM     21  C   UNL d   1     -24.122 -33.957  31.237  0.00  0.00    -0.014 C 
ATOM     22  C   UNL d   1     -24.217 -34.819  31.735  0.00  0.00     0.010 C 
BRANCH  21  23
ATOM     23  C   UNL d   1     -24.828 -33.252  31.318  0.00  0.00     0.005 C 
BRANCH  23  24
ATOM     24  C   UNL d   1     -25.465 -33.269  32.088  0.00  0.00     0.005 C 
BRANCH  24  25
ATOM     25  C   UNL d   1     -26.160 -32.555  32.177  0.00  0.00    -0.015 C 
ATOM     26  C   UNL d   1     -25.979 -31.636  31.828  0.00  0.00     0.010 C 
BRANCH  25  27
ATOM     27  C   UNL d   1     -27.034 -32.761  32.616  0.00  0.00    -0.019 C 
ATOM     28  C   UNL d   1     -27.100 -32.782  33.614  0.00  0.00     0.010 C 
ATOM     29  C   UNL d   1     -27.843 -32.947  32.057  0.00  0.00     0.010 C 
ENDBRANCH  25  27
ENDBRANCH  24  25
ENDBRANCH  23  24
ENDBRANCH  21  23
ENDBRANCH   6  21
TORSDOF 5
ENDMDL
MODEL 3
REMARK VINA RESULT:    -9.451     25.662     28.003
REMARK INTER + INTRA:          -1.617
REMARK INTER:                 -12.160
REMARK INTRA:                  10.542
REMARK UNBOUND:                10.596
REMARK  5 active torsions:
REMARK  status: ('A' for Active; 'I' for Inactive)
REMARK    1  A    between atoms: C_6  and  C_13 
REMARK    2  A    between atoms: C_13  and  C_19 
REMARK    3  A    between atoms: C_19  and  C_24 
REMARK    4  A    between atoms: C_24  and  C_25 
REMARK    5  A    between atoms: C_25  and  C_26 
ROOT
ATOM      1  O   UNL d   1     -27.271 -31.885  33.713  0.00  0.00    -0.293 OA
ATOM      2  C   UNL d   1     -23.098 -34.269  29.800  0.00  0.00    -0.036 A 
ATOM      3  C   UNL d   1     -23.345 -34.776  30.626  0.00  0.00    -0.002 A 
ATOM      4  C   UNL d   1     -24.017 -34.398  31.263  0.00  0.00    -0.004 A 
ATOM      5  C   UNL d   1     -24.443 -33.513  31.073  0.00  0.00     0.002 A 
ATOM      6  C   UNL d   1     -22.423 -34.805  29.305  0.00  0.00    -0.002 A 
ATOM      7  C   UNL d   1     -23.524 -33.385  29.611  0.00  0.00     0.010 A 
ATOM      8  C   UNL d   1     -22.820 -35.620  30.635  0.00  0.00     0.006 A 
ATOM      9  C   UNL d   1     -25.145 -33.107  31.726  0.00  0.00    -0.016 A 
ATOM     10  C   UNL d   1     -24.197 -33.007  30.247  0.00  0.00     0.007 A 
ATOM     11  C   UNL d   1     -22.251 -35.638  29.819  0.00  0.00     0.006 A 
ATOM     12  C   UNL d   1     -24.264 -34.938  32.120  0.00  0.00     0.010 A 
ATOM     13  C   UNL d   1     -22.852 -33.762  28.974  0.00  0.00     0.016 C 
ATOM     14  C   UNL d   1     -25.407 -33.629  32.589  0.00  0.00    -0.068 A 
ATOM     15  C   UNL d   1     -24.963 -34.551  32.787  0.00  0.00     0.035 A 
ATOM     16  C   UNL d   1     -25.594 -32.146  31.499  0.00  0.00     0.022 A 
ATOM     17  C   UNL d   1     -24.894 -32.606  30.898  0.00  0.00     0.020 C 
ATOM     18  C   UNL d   1     -26.326 -31.722  32.180  0.00  0.00     0.084 A 
ATOM     19  C   UNL d   1     -26.136 -33.226  33.285  0.00  0.00     0.053 A 
ATOM     20  C   UNL d   1     -26.598 -32.266  33.079  0.00  0.00     0.149 A 
ENDROOT
BRANCH   6  21
ATOM     21  C   UNL d   1     -21.991 -34.549  28.439  0.00  0.00    -0.014 C 
ATOM     22  C   UNL d   1     -21.155 -34.001  28.441  0.00  0.00     0.010 C 
BRANCH  21  23
ATOM     23  C   UNL d   1     -22.397 -34.843  27.573  0.00  0.00     0.005 C 
BRANCH  23  24
ATOM     24  C   UNL d   1     -21.811 -35.007  26.778  0.00  0.00     0.005 C 
BRANCH  24  25
ATOM     25  C   UNL d   1     -22.216 -35.302  25.913  0.00  0.00    -0.015 C 
ATOM     26  C   UNL d   1     -23.106 -35.760  25.908  0.00  0.00     0.010 C 
BRANCH  25  27
ATOM     27  C   UNL d   1     -21.731 -35.141  25.054  0.00  0.00    -0.019 C 
ATOM     28  C   UNL d   1     -20.731 -35.113  25.043  0.00  0.00     0.010 C 
ATOM     29  C   UNL d   1     -22.245 -35.007  24.206  0.00  0.00     0.010 C 
ENDBRANCH  25  27
ENDBRANCH  24  25
ENDBRANCH  23  24
ENDBRANCH  21  23
ENDBRANCH   6  21
TORSDOF 5
ENDMDL
MODEL 4
REMARK VINA RESULT:    -9.427      4.552      6.870
REMARK INTER + INTRA:          -1.586
REMARK INTER:                 -11.859
REMARK INTRA:                  10.273
REMARK UNBOUND:                10.596
REMARK  5 active torsions:
REMARK  status: ('A' for Active; 'I' for Inactive)
REMARK    1  A    between atoms: C_6  and  C_13 
REMARK    2  A    between atoms: C_13  and  C_19 
REMARK    3  A    between atoms: C_19  and  C_24 
REMARK    4  A    between atoms: C_24  and  C_25 
REMARK    5  A    between atoms: C_25  and  C_26 
ROOT
ATOM      1  O   UNL d   1     -10.605 -41.815   8.341  0.00  0.00    -0.293 OA
ATOM      2  C   UNL d   1     -10.770 -43.218   2.307  0.00  0.00    -0.036 A 
ATOM      3  C   UNL d   1      -9.949 -42.796   2.693  0.00  0.00    -0.002 A 
ATOM      4  C   UNL d   1      -9.915 -42.567   3.665  0.00  0.00    -0.004 A 
ATOM      5  C   UNL d   1     -10.701 -42.760   4.253  0.00  0.00     0.002 A 
ATOM      6  C   UNL d   1     -10.609 -43.367   1.338  0.00  0.00    -0.002 A 
ATOM      7  C   UNL d   1     -11.556 -43.411   2.894  0.00  0.00     0.010 A 
ATOM      8  C   UNL d   1      -9.288 -42.688   1.958  0.00  0.00     0.006 A 
ATOM      9  C   UNL d   1     -10.680 -42.526   5.268  0.00  0.00    -0.016 A 
ATOM     10  C   UNL d   1     -11.521 -43.181   3.867  0.00  0.00     0.007 A 
ATOM     11  C   UNL d   1      -9.695 -43.040   1.122  0.00  0.00     0.006 A 
ATOM     12  C   UNL d   1      -9.053 -42.128   4.053  0.00  0.00     0.010 A 
ATOM     13  C   UNL d   1     -11.590 -43.640   1.922  0.00  0.00     0.016 C 
ATOM     14  C   UNL d   1      -9.828 -42.086   5.676  0.00  0.00    -0.068 A 
ATOM     15  C   UNL d   1      -9.009 -41.886   5.065  0.00  0.00     0.035 A 
ATOM     16  C   UNL d   1     -11.545 -42.744   5.885  0.00  0.00     0.022 A 
ATOM     17  C   UNL d   1     -11.497 -42.948   4.875  0.00  0.00     0.020 C 
ATOM     18  C   UNL d   1     -11.523 -42.501   6.942  0.00  0.00     0.084 A 
ATOM     19  C   UNL d   1      -9.783 -41.834   6.731  0.00  0.00     0.053 A 
ATOM     20  C   UNL d   1     -10.636 -42.043   7.368  0.00  0.00     0.149 A 
ENDROOT
BRANCH   6  21
ATOM     21  C   UNL d   1     -11.254 -43.775   0.691  0.00  0.00    -0.014 C 
ATOM     22  C   UNL d   1     -11.955 -43.207   0.261  0.00  0.00     0.010 C 
BRANCH  21  23
ATOM     23  C   UNL d   1     -11.197 -44.750   0.476  0.00  0.00     0.005 C 
BRANCH  23  24
ATOM     24  C   UNL d   1     -11.249 -45.055  -0.475  0.00  0.00     0.005 C 
BRANCH  24  25
ATOM     25  C   UNL d   1     -10.981 -45.989  -0.715  0.00  0.00    -0.015 C 
ATOM     26  C   UNL d   1     -10.993 -46.706  -0.020  0.00  0.00     0.010 C 
BRANCH  25  27
ATOM     27  C   UNL d   1     -10.701 -46.202  -1.651  0.00  0.00    -0.019 C 
ATOM     28  C   UNL d   1     -11.389 -46.279  -2.373  0.00  0.00     0.010 C 
ATOM     29  C   UNL d   1      -9.733 -46.339  -1.865  0.00  0.00     0.010 C 
ENDBRANCH  25  27
ENDBRANCH  24  25
ENDBRANCH  23  24
ENDBRANCH  21  23
ENDBRANCH   6  21
TORSDOF 5
ENDMDL
MODEL 5
REMARK VINA RESULT:    -9.425     24.091     25.977
REMARK INTER + INTRA:          -1.584
REMARK INTER:                 -12.131
REMARK INTRA:                  10.547
REMARK UNBOUND:                10.596
REMARK  5 active torsions:
REMARK  status: ('A' for Active; 'I' for Inactive)
REMARK    1  A    between atoms: C_6  and  C_13 
REMARK    2  A    between atoms: C_13  and  C_19 
REMARK    3  A    between atoms: C_19  and  C_24 
REMARK    4  A    between atoms: C_24  and  C_25 
REMARK    5  A    between atoms: C_25  and  C_26 
ROOT
ATOM      1  O   UNL d   1     -22.485 -35.028  23.449  0.00  0.00    -0.293 OA
ATOM      2  C   UNL d   1     -21.163 -34.352  29.466  0.00  0.00    -0.036 A 
ATOM      3  C   UNL d   1     -20.629 -33.852  28.785  0.00  0.00    -0.002 A 
ATOM      4  C   UNL d   1     -20.836 -33.955  27.812  0.00  0.00    -0.004 A 
ATOM      5  C   UNL d   1     -21.577 -34.560  27.520  0.00  0.00     0.002 A 
ATOM      6  C   UNL d   1     -20.808 -34.118  30.363  0.00  0.00    -0.002 A 
ATOM      7  C   UNL d   1     -21.905 -34.957  29.174  0.00  0.00     0.010 A 
ATOM      8  C   UNL d   1     -19.948 -33.312  29.268  0.00  0.00     0.006 A 
ATOM      9  C   UNL d   1     -21.805 -34.678  26.510  0.00  0.00    -0.016 A 
ATOM     10  C   UNL d   1     -22.112 -35.060  28.201  0.00  0.00     0.007 A 
ATOM     11  C   UNL d   1     -20.058 -33.476  30.242  0.00  0.00     0.006 A 
ATOM     12  C   UNL d   1     -20.271 -33.427  27.114  0.00  0.00     0.010 A 
ATOM     13  C   UNL d   1     -21.697 -34.853  30.147  0.00  0.00     0.016 C 
ATOM     14  C   UNL d   1     -21.252 -34.159  25.795  0.00  0.00    -0.068 A 
ATOM     15  C   UNL d   1     -20.480 -33.530  26.099  0.00  0.00     0.035 A 
ATOM     16  C   UNL d   1     -22.614 -35.339  26.218  0.00  0.00     0.022 A 
ATOM     17  C   UNL d   1     -22.335 -35.175  27.197  0.00  0.00     0.020 C 
ATOM     18  C   UNL d   1     -22.851 -35.462  25.166  0.00  0.00     0.084 A 
ATOM     19  C   UNL d   1     -21.470 -34.266  24.738  0.00  0.00     0.053 A 
ATOM     20  C   UNL d   1     -22.275 -34.922  24.421  0.00  0.00     0.149 A 
ENDROOT
BRANCH   6  21
ATOM     21  C   UNL d   1     -21.145 -34.467  31.238  0.00  0.00    -0.014 C 
ATOM     22  C   UNL d   1     -21.863 -33.974  31.729  0.00  0.00     0.010 C 
BRANCH  21  23
ATOM     23  C   UNL d   1     -20.765 -35.309  31.621  0.00  0.00     0.005 C 
BRANCH  23  24
ATOM     24  C   UNL d   1     -20.208 -35.273  32.451  0.00  0.00     0.005 C 
BRANCH  24  25
ATOM     25  C   UNL d   1     -19.582 -36.024  32.665  0.00  0.00    -0.015 C 
ATOM     26  C   UNL d   1     -19.852 -36.968  32.478  0.00  0.00     0.010 C 
BRANCH  25  27
ATOM     27  C   UNL d   1     -18.688 -35.829  33.067  0.00  0.00    -0.019 C 
ATOM     28  C   UNL d   1     -18.585 -35.072  33.713  0.00  0.00     0.010 C 
ATOM     29  C   UNL d   1     -17.896 -36.390  32.823  0.00  0.00     0.010 C 
ENDBRANCH  25  27
ENDBRANCH  24  25
ENDBRANCH  23  24
ENDBRANCH  21  23
ENDBRANCH   6  21
TORSDOF 5
ENDMDL
