MODEL 1
REMARK VINA RESULT:   -11.068      0.000      0.000
REMARK INTER + INTRA:         -12.353
REMARK INTER:                 -13.738
REMARK INTRA:                   1.385
REMARK UNBOUND:                 1.303
REMARK  6 active torsions:
REMARK  status: ('A' for Active; 'I' for Inactive)
REMARK    1  A    between atoms: C_22  and  O_1 
REMARK    2  A    between atoms: C_24  and  O_2 
REMARK    3  A    between atoms: O_3  and  C_30 
REMARK    4  A    between atoms: O_4  and  C_33 
REMARK    5  A    between atoms: C_14  and  C_30 
REMARK    6  A    between atoms: C_19  and  C_33 
ROOT
ATOM      1  C   UNL d   1      30.075 -16.265  43.594  0.00  0.00    -0.028 A 
ATOM      2  C   UNL d   1      30.334 -17.187  43.307  0.00  0.00     0.007 A 
ATOM      3  C   UNL d   1      30.119 -17.529  42.347  0.00  0.00    -0.033 A 
ATOM      4  C   UNL d   1      30.288 -15.951  44.519  0.00  0.00    -0.013 A 
ATOM      5  C   UNL d   1      29.627 -16.902  41.677  0.00  0.00     0.007 A 
ATOM      6  C   UNL d   1      29.582 -15.621  42.941  0.00  0.00     0.011 A 
ATOM      7  C   UNL d   1      30.760 -16.558  45.157  0.00  0.00    -0.069 A 
ATOM      8  C   UNL d   1      29.357 -15.941  41.975  0.00  0.00     0.007 A 
ATOM      9  C   UNL d   1      29.393 -17.236  40.671  0.00  0.00     0.010 A 
ATOM     10  C   UNL d   1      30.989 -16.245  46.124  0.00  0.00     0.038 A 
ATOM     11  C   UNL d   1      30.807 -17.795  43.946  0.00  0.00     0.033 A 
ATOM     12  C   UNL d   1      30.410 -18.533  42.058  0.00  0.00     0.044 A 
ATOM     13  C   UNL d   1      30.011 -14.987  44.803  0.00  0.00     0.016 A 
ATOM     14  C   UNL d   1      30.722 -15.286  46.430  0.00  0.00     0.053 A 
ATOM     15  C   UNL d   1      29.695 -15.340  43.555  0.00  0.00     0.016 C 
ATOM     16  C   UNL d   1      30.229 -14.653  45.765  0.00  0.00     0.022 A 
ATOM     17  C   UNL d   1      29.674 -18.236  40.360  0.00  0.00     0.157 A 
ATOM     18  C   UNL d   1      31.020 -17.481  44.871  0.00  0.00    -0.022 A 
ATOM     19  C   UNL d   1      30.186 -18.889  41.058  0.00  0.00     0.148 A 
ATOM     20  C   UNL d   1      30.591 -18.131  42.991  0.00  0.00     0.016 C 
ATOM     21  C   UNL d   1      29.834 -15.135  44.158  0.00  0.00     0.021 C 
ATOM     22  C   UNL d   1      31.502 -16.922  46.799  0.00  0.00    -0.005 A 
ATOM     23  C   UNL d   1      30.949 -14.937  47.432  0.00  0.00     0.021 A 
ATOM     24  C   UNL d   1      31.740 -16.596  47.806  0.00  0.00    -0.014 A 
ATOM     25  C   UNL d   1      28.971 -16.351  40.472  0.00  0.00     0.020 C 
ATOM     26  C   UNL d   1      31.462 -15.597  48.125  0.00  0.00     0.006 A 
ATOM     27  C   UNL d   1      31.754 -17.841  46.495  0.00  0.00     0.011 C 
ATOM     28  C   UNL d   1      32.213 -17.212  48.436  0.00  0.00     0.010 C 
ENDROOT
BRANCH   9  29
ATOM     29  C   UNL d   1      28.996 -17.063  39.770  0.00  0.00     0.176 C 
BRANCH  29  30
ATOM     30  O   UNL d   1      28.082 -16.664  39.693  0.00  0.00    -0.400 OA
ATOM     31  H   UNL d   1      27.833 -16.564  39.135  0.00  0.00     0.209 HD
ENDBRANCH  29  30
ENDBRANCH   9  29
BRANCH  17  32
ATOM     32  O   UNL d   1      29.463 -18.554  39.436  0.00  0.00    -0.392 OA
ATOM     33  H   UNL d   1      28.874 -18.650  39.267  0.00  0.00     0.210 HD
ENDBRANCH  17  32
BRANCH  19  34
ATOM     34  O   UNL d   1      30.450 -19.813  40.782  0.00  0.00    -0.393 OA
ATOM     35  H   UNL d   1      30.856 -19.895  40.320  0.00  0.00     0.210 HD
ENDBRANCH  19  34
BRANCH  14  36
ATOM     36  C   UNL d   1      30.465 -14.365  46.724  0.00  0.00     0.149 C 
ATOM     37  O   UNL d   1      31.129 -13.619  46.664  0.00  0.00    -0.649 OA
BRANCH  36  38
ATOM     38  O   UNL d   1      29.547 -14.190  47.077  0.00  0.00    -0.776 OA
ATOM     39  H   UNL d   1      29.415 -14.311  47.671  0.00  0.00     0.167 HD
ENDBRANCH  36  38
ENDBRANCH  14  36
TORSDOF 6
ENDMDL
MODEL 2
REMARK VINA RESULT:   -10.956      1.359      5.796
REMARK INTER + INTRA:         -12.215
REMARK INTER:                 -13.630
REMARK INTRA:                   1.416
REMARK UNBOUND:                 1.303
REMARK  6 active torsions:
REMARK  status: ('A' for Active; 'I' for Inactive)
REMARK    1  A    between atoms: C_22  and  O_1 
REMARK    2  A    between atoms: C_24  and  O_2 
REMARK    3  A    between atoms: O_3  and  C_30 
REMARK    4  A    between atoms: O_4  and  C_33 
REMARK    5  A    between atoms: C_14  and  C_30 
REMARK    6  A    between atoms: C_19  and  C_33 
ROOT
ATOM      1  C   UNL d   1      30.516 -16.597  44.397  0.00  0.00    -0.028 A 
ATOM      2  C   UNL d   1      31.170 -17.217  44.830  0.00  0.00     0.007 A 
ATOM      3  C   UNL d   1      31.465 -17.076  45.819  0.00  0.00    -0.033 A 
ATOM      4  C   UNL d   1      30.242 -16.744  43.446  0.00  0.00    -0.013 A 
ATOM      5  C   UNL d   1      31.074 -16.279  46.364  0.00  0.00     0.007 A 
ATOM      6  C   UNL d   1      30.112 -15.794  44.922  0.00  0.00     0.011 A 
ATOM      7  C   UNL d   1      30.622 -17.512  42.930  0.00  0.00    -0.069 A 
ATOM      8  C   UNL d   1      30.392 -15.634  45.912  0.00  0.00     0.007 A 
ATOM      9  C   UNL d   1      31.366 -16.112  47.396  0.00  0.00     0.010 A 
ATOM     10  C   UNL d   1      30.346 -17.678  41.939  0.00  0.00     0.038 A 
ATOM     11  C   UNL d   1      31.550 -17.984  44.313  0.00  0.00     0.033 A 
ATOM     12  C   UNL d   1      32.176 -17.761  46.268  0.00  0.00     0.044 A 
ATOM     13  C   UNL d   1      29.559 -16.090  43.008  0.00  0.00     0.016 A 
ATOM     14  C   UNL d   1      29.665 -17.037  41.481  0.00  0.00     0.053 A 
ATOM     15  C   UNL d   1      29.880 -15.834  44.279  0.00  0.00     0.016 C 
ATOM     16  C   UNL d   1      29.269 -16.238  42.019  0.00  0.00     0.022 A 
ATOM     17  C   UNL d   1      32.076 -16.784  47.866  0.00  0.00     0.157 A 
ATOM     18  C   UNL d   1      31.276 -18.131  43.363  0.00  0.00    -0.022 A 
ATOM     19  C   UNL d   1      32.484 -17.614  47.299  0.00  0.00     0.148 A 
ATOM     20  C   UNL d   1      31.841 -17.841  45.296  0.00  0.00     0.016 C 
ATOM     21  C   UNL d   1      29.701 -15.930  43.659  0.00  0.00     0.021 C 
ATOM     22  C   UNL d   1      30.771 -18.517  41.399  0.00  0.00    -0.005 A 
ATOM     23  C   UNL d   1      29.362 -17.190  40.450  0.00  0.00     0.021 A 
ATOM     24  C   UNL d   1      30.484 -18.690  40.367  0.00  0.00    -0.014 A 
ATOM     25  C   UNL d   1      30.768 -15.312  47.439  0.00  0.00     0.020 C 
ATOM     26  C   UNL d   1      29.775 -18.023  39.889  0.00  0.00     0.006 A 
ATOM     27  C   UNL d   1      31.425 -19.127  41.849  0.00  0.00     0.011 C 
ATOM     28  C   UNL d   1      30.871 -19.461  39.860  0.00  0.00     0.010 C 
ENDROOT
BRANCH   9  29
ATOM     29  C   UNL d   1      31.302 -15.582  48.240  0.00  0.00     0.176 C 
BRANCH  29  30
ATOM     30  O   UNL d   1      31.250 -14.584  48.202  0.00  0.00    -0.400 OA
ATOM     31  H   UNL d   1      31.003 -14.305  47.706  0.00  0.00     0.209 HD
ENDBRANCH  29  30
ENDBRANCH   9  29
BRANCH  17  32
ATOM     32  O   UNL d   1      32.352 -16.640  48.816  0.00  0.00    -0.392 OA
ATOM     33  H   UNL d   1      32.382 -16.066  49.047  0.00  0.00     0.210 HD
ENDBRANCH  17  32
BRANCH  19  34
ATOM     34  O   UNL d   1      33.139 -18.240  47.722  0.00  0.00    -0.393 OA
ATOM     35  H   UNL d   1      33.243 -18.797  47.471  0.00  0.00     0.210 HD
ENDBRANCH  19  34
BRANCH  14  36
ATOM     36  C   UNL d   1      29.011 -16.422  41.040  0.00  0.00     0.149 C 
ATOM     37  O   UNL d   1      28.056 -16.699  40.939  0.00  0.00    -0.649 OA
BRANCH  36  38
ATOM     38  O   UNL d   1      29.312 -15.531  40.702  0.00  0.00    -0.776 OA
ATOM     39  H   UNL d   1      29.089 -15.011  40.955  0.00  0.00     0.167 HD
ENDBRANCH  36  38
ENDBRANCH  14  36
TORSDOF 6
ENDMDL
MODEL 3
REMARK VINA RESULT:   -10.901     17.629     19.297
REMARK INTER + INTRA:         -12.147
REMARK INTER:                 -13.485
REMARK INTRA:                   1.338
REMARK UNBOUND:                 1.303
REMARK  6 active torsions:
REMARK  status: ('A' for Active; 'I' for Inactive)
REMARK    1  A    between atoms: C_22  and  O_1 
REMARK    2  A    between atoms: C_24  and  O_2 
REMARK    3  A    between atoms: O_3  and  C_30 
REMARK    4  A    between atoms: O_4  and  C_33 
REMARK    5  A    between atoms: C_14  and  C_30 
REMARK    6  A    between atoms: C_19  and  C_33 
ROOT
ATOM      1  C   UNL d   1      40.252  -0.725  43.088  0.00  0.00    -0.028 A 
ATOM      2  C   UNL d   1      39.508  -0.131  42.783  0.00  0.00     0.007 A 
ATOM      3  C   UNL d   1      38.831  -0.450  42.058  0.00  0.00    -0.033 A 
ATOM      4  C   UNL d   1      40.894  -0.405  43.785  0.00  0.00    -0.013 A 
ATOM      5  C   UNL d   1      38.931  -1.401  41.646  0.00  0.00     0.007 A 
ATOM      6  C   UNL d   1      40.371  -1.680  42.690  0.00  0.00     0.011 A 
ATOM      7  C   UNL d   1      40.792   0.510  44.176  0.00  0.00    -0.069 A 
ATOM      8  C   UNL d   1      39.706  -2.020  41.964  0.00  0.00     0.007 A 
ATOM      9  C   UNL d   1      38.238  -1.756  40.889  0.00  0.00     0.010 A 
ATOM     10  C   UNL d   1      41.453   0.857  44.902  0.00  0.00     0.038 A 
ATOM     11  C   UNL d   1      39.406   0.784  43.174  0.00  0.00     0.033 A 
ATOM     12  C   UNL d   1      38.032   0.212  41.742  0.00  0.00     0.044 A 
ATOM     13  C   UNL d   1      41.664  -1.036  44.092  0.00  0.00     0.016 A 
ATOM     14  C   UNL d   1      42.230   0.244  45.225  0.00  0.00     0.053 A 
ATOM     15  C   UNL d   1      40.845  -1.527  43.160  0.00  0.00     0.016 C 
ATOM     16  C   UNL d   1      42.336  -0.709  44.817  0.00  0.00     0.022 A 
ATOM     17  C   UNL d   1      37.432  -1.112  40.558  0.00  0.00     0.157 A 
ATOM     18  C   UNL d   1      40.048   1.104  43.871  0.00  0.00    -0.022 A 
ATOM     19  C   UNL d   1      37.327  -0.121  40.987  0.00  0.00     0.148 A 
ATOM     20  C   UNL d   1      38.736   0.463  42.454  0.00  0.00     0.016 C 
ATOM     21  C   UNL d   1      41.263  -1.319  43.614  0.00  0.00     0.021 C 
ATOM     22  C   UNL d   1      41.322   1.853  45.312  0.00  0.00    -0.005 A 
ATOM     23  C   UNL d   1      42.931   0.584  45.981  0.00  0.00     0.021 A 
ATOM     24  C   UNL d   1      42.010   2.215  46.069  0.00  0.00    -0.014 A 
ATOM     25  C   UNL d   1      38.730  -2.626  40.842  0.00  0.00     0.020 C 
ATOM     26  C   UNL d   1      42.820   1.576  46.405  0.00  0.00     0.006 A 
ATOM     27  C   UNL d   1      40.572   2.434  44.995  0.00  0.00     0.011 C 
ATOM     28  C   UNL d   1      41.898   3.131  46.453  0.00  0.00     0.010 C 
ENDROOT
BRANCH   9  29
ATOM     29  C   UNL d   1      37.930  -2.471  40.262  0.00  0.00     0.176 C 
BRANCH  29  30
ATOM     30  O   UNL d   1      38.035  -3.434  40.511  0.00  0.00    -0.400 OA
ATOM     31  H   UNL d   1      37.861  -3.630  41.073  0.00  0.00     0.209 HD
ENDBRANCH  29  30
ENDBRANCH   9  29
BRANCH  17  32
ATOM     32  O   UNL d   1      36.788  -1.428  39.862  0.00  0.00    -0.392 OA
ATOM     33  H   UNL d   1      36.965  -1.850  39.444  0.00  0.00     0.210 HD
ENDBRANCH  17  32
BRANCH  19  34
ATOM     34  O   UNL d   1      36.587   0.482  40.690  0.00  0.00    -0.393 OA
ATOM     35  H   UNL d   1      36.033   0.244  40.544  0.00  0.00     0.210 HD
ENDBRANCH  19  34
BRANCH  14  36
ATOM     36  C   UNL d   1      42.977  -0.345  45.536  0.00  0.00     0.149 C 
ATOM     37  O   UNL d   1      43.884  -0.260  45.123  0.00  0.00    -0.649 OA
BRANCH  36  38
ATOM     38  O   UNL d   1      42.817  -1.017  46.257  0.00  0.00    -0.776 OA
ATOM     39  H   UNL d   1      42.299  -0.990  46.597  0.00  0.00     0.167 HD
ENDBRANCH  36  38
ENDBRANCH  14  36
TORSDOF 6
ENDMDL
MODEL 4
REMARK VINA RESULT:   -10.762     18.154     19.821
REMARK INTER + INTRA:         -11.975
REMARK INTER:                 -13.282
REMARK INTRA:                   1.307
REMARK UNBOUND:                 1.303
REMARK  6 active torsions:
REMARK  status: ('A' for Active; 'I' for Inactive)
REMARK    1  A    between atoms: C_22  and  O_1 
REMARK    2  A    between atoms: C_24  and  O_2 
REMARK    3  A    between atoms: O_3  and  C_30 
REMARK    4  A    between atoms: O_4  and  C_33 
REMARK    5  A    between atoms: C_14  and  C_30 
REMARK    6  A    between atoms: C_19  and  C_33 
ROOT
ATOM      1  C   UNL d   1      39.633   0.582  43.695  0.00  0.00    -0.028 A 
ATOM      2  C   UNL d   1      40.272  -0.159  43.492  0.00  0.00     0.007 A 
ATOM      3  C   UNL d   1      40.021  -0.912  42.818  0.00  0.00    -0.033 A 
ATOM      4  C   UNL d   1      39.887   1.298  44.345  0.00  0.00    -0.013 A 
ATOM      5  C   UNL d   1      39.092  -0.893  42.349  0.00  0.00     0.007 A 
ATOM      6  C   UNL d   1      38.698   0.622  43.238  0.00  0.00     0.011 A 
ATOM      7  C   UNL d   1      40.782   1.273  44.792  0.00  0.00    -0.069 A 
ATOM      8  C   UNL d   1      38.425  -0.121  42.560  0.00  0.00     0.007 A 
ATOM      9  C   UNL d   1      38.808  -1.667  41.643  0.00  0.00     0.010 A 
ATOM     10  C   UNL d   1      41.061   2.012  45.471  0.00  0.00     0.038 A 
ATOM     11  C   UNL d   1      41.167  -0.184  43.939  0.00  0.00     0.033 A 
ATOM     12  C   UNL d   1      40.731  -1.707  42.614  0.00  0.00     0.044 A 
ATOM     13  C   UNL d   1      39.210   2.064  44.546  0.00  0.00     0.016 A 
ATOM     14  C   UNL d   1      40.400   2.788  45.687  0.00  0.00     0.053 A 
ATOM     15  C   UNL d   1      38.805   1.143  43.670  0.00  0.00     0.016 C 
ATOM     16  C   UNL d   1      39.468   2.814  45.222  0.00  0.00     0.022 A 
ATOM     17  C   UNL d   1      39.501  -2.471  41.422  0.00  0.00     0.157 A 
ATOM     18  C   UNL d   1      41.421   0.532  44.589  0.00  0.00    -0.022 A 
ATOM     19  C   UNL d   1      40.470  -2.491  41.911  0.00  0.00     0.148 A 
ATOM     20  C   UNL d   1      40.914  -0.931  43.269  0.00  0.00     0.016 C 
ATOM     21  C   UNL d   1      38.971   1.610  44.093  0.00  0.00     0.021 C 
ATOM     22  C   UNL d   1      42.036   1.964  45.943  0.00  0.00    -0.005 A 
ATOM     23  C   UNL d   1      40.669   3.569  46.391  0.00  0.00     0.021 A 
ATOM     24  C   UNL d   1      42.328   2.734  46.650  0.00  0.00    -0.014 A 
ATOM     25  C   UNL d   1      37.923  -1.221  41.505  0.00  0.00     0.020 C 
ATOM     26  C   UNL d   1      41.639   3.541  46.876  0.00  0.00     0.006 A 
ATOM     27  C   UNL d   1      42.664   1.215  45.728  0.00  0.00     0.011 C 
ATOM     28  C   UNL d   1      43.225   2.698  47.091  0.00  0.00     0.010 C 
ENDROOT
BRANCH   9  29
ATOM     29  C   UNL d   1      38.142  -2.062  41.011  0.00  0.00     0.176 C 
BRANCH  29  30
ATOM     30  O   UNL d   1      37.437  -1.484  40.600  0.00  0.00    -0.400 OA
ATOM     31  H   UNL d   1      36.956  -1.743  40.306  0.00  0.00     0.209 HD
ENDBRANCH  29  30
ENDBRANCH   9  29
BRANCH  17  32
ATOM     32  O   UNL d   1      39.251  -3.189  40.774  0.00  0.00    -0.392 OA
ATOM     33  H   UNL d   1      39.581  -3.267  40.254  0.00  0.00     0.210 HD
ENDBRANCH  17  32
BRANCH  19  34
ATOM     34  O   UNL d   1      41.117  -3.228  41.716  0.00  0.00    -0.393 OA
ATOM     35  H   UNL d   1      41.153  -3.466  41.144  0.00  0.00     0.210 HD
ENDBRANCH  19  34
BRANCH  14  36
ATOM     36  C   UNL d   1      39.766   3.532  45.895  0.00  0.00     0.149 C 
ATOM     37  O   UNL d   1      39.782   4.369  45.348  0.00  0.00    -0.649 OA
BRANCH  36  38
ATOM     38  O   UNL d   1      39.117   3.441  46.650  0.00  0.00    -0.776 OA
ATOM     39  H   UNL d   1      38.552   3.209  46.546  0.00  0.00     0.167 HD
ENDBRANCH  36  38
ENDBRANCH  14  36
TORSDOF 6
ENDMDL
MODEL 5
REMARK VINA RESULT:   -10.693     17.961     20.261
REMARK INTER + INTRA:         -11.891
REMARK INTER:                 -13.197
REMARK INTRA:                   1.307
REMARK UNBOUND:                 1.303
REMARK  6 active torsions:
REMARK  status: ('A' for Active; 'I' for Inactive)
REMARK    1  A    between atoms: C_22  and  O_1 
REMARK    2  A    between atoms: C_24  and  O_2 
REMARK    3  A    between atoms: O_3  and  C_30 
REMARK    4  A    between atoms: O_4  and  C_33 
REMARK    5  A    between atoms: C_14  and  C_30 
REMARK    6  A    between atoms: C_19  and  C_33 
ROOT
ATOM      1  C   UNL d   1      39.786   0.356  43.756  0.00  0.00    -0.028 A 
ATOM      2  C   UNL d   1      40.400   0.890  44.336  0.00  0.00     0.007 A 
ATOM      3  C   UNL d   1      40.041   1.683  44.908  0.00  0.00    -0.033 A 
ATOM      4  C   UNL d   1      40.145  -0.403  43.212  0.00  0.00    -0.013 A 
ATOM      5  C   UNL d   1      39.028   1.922  44.875  0.00  0.00     0.007 A 
ATOM      6  C   UNL d   1      38.770   0.577  43.707  0.00  0.00     0.011 A 
ATOM      7  C   UNL d   1      41.119  -0.627  43.249  0.00  0.00    -0.069 A 
ATOM      8  C   UNL d   1      38.388   1.366  44.270  0.00  0.00     0.007 A 
ATOM      9  C   UNL d   1      38.630   2.744  45.462  0.00  0.00     0.010 A 
ATOM     10  C   UNL d   1      41.508  -1.414  42.688  0.00  0.00     0.038 A 
ATOM     11  C   UNL d   1      41.374   0.666  44.373  0.00  0.00     0.033 A 
ATOM     12  C   UNL d   1      40.726   2.249  45.530  0.00  0.00     0.044 A 
ATOM     13  C   UNL d   1      39.493  -0.950  42.612  0.00  0.00     0.016 A 
ATOM     14  C   UNL d   1      40.874  -1.975  42.081  0.00  0.00     0.053 A 
ATOM     15  C   UNL d   1      38.945   0.048  43.310  0.00  0.00     0.016 C 
ATOM     16  C   UNL d   1      39.860  -1.742  42.043  0.00  0.00     0.022 A 
ATOM     17  C   UNL d   1      39.296   3.324  46.091  0.00  0.00     0.157 A 
ATOM     18  C   UNL d   1      41.734  -0.092  43.829  0.00  0.00    -0.022 A 
ATOM     19  C   UNL d   1      40.352   3.075  46.126  0.00  0.00     0.148 A 
ATOM     20  C   UNL d   1      41.013   1.453  44.939  0.00  0.00     0.016 C 
ATOM     21  C   UNL d   1      39.179  -0.447  42.955  0.00  0.00     0.021 C 
ATOM     22  C   UNL d   1      42.568  -1.638  42.744  0.00  0.00    -0.005 A 
ATOM     23  C   UNL d   1      41.256  -2.800  41.489  0.00  0.00     0.021 A 
ATOM     24  C   UNL d   1      42.973  -2.458  42.161  0.00  0.00    -0.014 A 
ATOM     25  C   UNL d   1      37.715   2.562  45.103  0.00  0.00     0.020 C 
ATOM     26  C   UNL d   1      42.313  -3.043  41.528  0.00  0.00     0.006 A 
ATOM     27  C   UNL d   1      43.168  -1.093  43.331  0.00  0.00     0.011 C 
ATOM     28  C   UNL d   1      43.949  -2.673  42.205  0.00  0.00     0.010 C 
ENDROOT
BRANCH   9  29
ATOM     29  C   UNL d   1      37.858   3.309  45.752  0.00  0.00     0.176 C 
BRANCH  29  30
ATOM     30  O   UNL d   1      36.923   3.024  45.542  0.00  0.00    -0.400 OA
ATOM     31  H   UNL d   1      36.822   2.499  45.229  0.00  0.00     0.209 HD
ENDBRANCH  29  30
ENDBRANCH   9  29
BRANCH  17  32
ATOM     32  O   UNL d   1      38.941   4.083  46.636  0.00  0.00    -0.392 OA
ATOM     33  H   UNL d   1      39.272   4.306  47.111  0.00  0.00     0.210 HD
ENDBRANCH  17  32
BRANCH  19  34
ATOM     34  O   UNL d   1      40.975   3.602  46.703  0.00  0.00    -0.393 OA
ATOM     35  H   UNL d   1      41.481   3.333  46.940  0.00  0.00     0.210 HD
ENDBRANCH  19  34
BRANCH  14  36
ATOM     36  C   UNL d   1      40.266  -2.514  41.499  0.00  0.00     0.149 C 
ATOM     37  O   UNL d   1      40.114  -2.241  40.549  0.00  0.00    -0.649 OA
BRANCH  36  38
ATOM     38  O   UNL d   1      39.811  -3.325  41.865  0.00  0.00    -0.776 OA
ATOM     39  H   UNL d   1      40.144  -3.771  42.136  0.00  0.00     0.167 HD
ENDBRANCH  36  38
ENDBRANCH  14  36
TORSDOF 6
ENDMDL
