MODEL 1
REMARK VINA RESULT:    -8.717      0.000      0.000
REMARK INTER + INTRA:          -8.640
REMARK INTER:                  -9.655
REMARK INTRA:                   1.015
REMARK UNBOUND:                 1.096
REMARK  3 active torsions:
REMARK  status: ('A' for Active; 'I' for Inactive)
REMARK    1  A    between atoms: O_2  and  C_10 
REMARK    2  A    between atoms: O_4  and  C_13 
REMARK    3  A    between atoms: C_7  and  C_9 
ROOT
ATOM      1  O   UNL d   1     -45.726  15.508 -41.426  0.00  0.00    -0.309 OA
ATOM      2  O   UNL d   1     -46.551  13.768 -43.727  0.00  0.00    -0.287 OA
ATOM      3  C   UNL d   1     -45.318  14.614 -42.853  0.00  0.00     0.081 A 
ATOM      4  C   UNL d   1     -45.043  15.193 -42.086  0.00  0.00     0.095 A 
ATOM      5  C   UNL d   1     -46.684  15.242 -41.534  0.00  0.00     0.090 A 
ATOM      6  C   UNL d   1     -46.276  14.348 -42.960  0.00  0.00     0.190 A 
ATOM      7  C   UNL d   1     -44.618  14.279 -43.547  0.00  0.00     0.085 A 
ATOM      8  C   UNL d   1     -46.959  14.662 -42.300  0.00  0.00     0.094 A 
ATOM      9  C   UNL d   1     -44.048  15.479 -41.960  0.00  0.00     0.075 A 
ATOM     10  C   UNL d   1     -43.332  15.155 -42.643  0.00  0.00     0.071 A 
ATOM     11  C   UNL d   1     -43.618  14.552 -43.442  0.00  0.00     0.074 A 
ENDROOT
BRANCH   5  12
ATOM     12  C   UNL d   1     -47.367  15.556 -40.874  0.00  0.00    -0.002 A 
ATOM     13  C   UNL d   1     -47.685  14.941 -40.153  0.00  0.00     0.014 A 
ATOM     14  C   UNL d   1     -48.368  15.255 -39.494  0.00  0.00     0.001 A 
ATOM     15  C   UNL d   1     -48.732  16.184 -39.555  0.00  0.00     0.000 A 
ATOM     16  C   UNL d   1     -48.413  16.799 -40.276  0.00  0.00     0.001 A 
ATOM     17  C   UNL d   1     -47.731  16.485 -40.936  0.00  0.00     0.014 A 
ENDBRANCH   5  12
BRANCH   7  18
ATOM     18  O   UNL d   1     -44.904  13.700 -44.310  0.00  0.00    -0.360 OA
ATOM     19  H   UNL d   1     -45.049  13.955 -44.856  0.00  0.00     0.217 HD
ENDBRANCH   7  18
BRANCH  10  20
ATOM     20  O   UNL d   1     -42.374  15.423 -42.532  0.00  0.00    -0.361 OA
ATOM     21  H   UNL d   1     -42.229  16.017 -42.430  0.00  0.00     0.217 HD
ENDBRANCH  10  20
TORSDOF 3
ENDMDL
MODEL 2
REMARK VINA RESULT:    -8.319      1.050      2.388
REMARK INTER + INTRA:          -8.195
REMARK INTER:                  -9.199
REMARK INTRA:                   1.004
REMARK UNBOUND:                 1.096
REMARK  3 active torsions:
REMARK  status: ('A' for Active; 'I' for Inactive)
REMARK    1  A    between atoms: O_2  and  C_10 
REMARK    2  A    between atoms: O_4  and  C_13 
REMARK    3  A    between atoms: C_7  and  C_9 
ROOT
ATOM      1  O   UNL d   1     -47.209  14.568 -42.405  0.00  0.00    -0.309 OA
ATOM      2  O   UNL d   1     -44.248  15.001 -42.200  0.00  0.00    -0.287 OA
ATOM      3  C   UNL d   1     -45.612  14.338 -43.035  0.00  0.00     0.081 A 
ATOM      4  C   UNL d   1     -46.599  14.194 -43.104  0.00  0.00     0.095 A 
ATOM      5  C   UNL d   1     -46.832  15.086 -41.638  0.00  0.00     0.090 A 
ATOM      6  C   UNL d   1     -45.235  14.856 -42.268  0.00  0.00     0.190 A 
ATOM      7  C   UNL d   1     -44.965  13.955 -43.756  0.00  0.00     0.085 A 
ATOM      8  C   UNL d   1     -45.844  15.230 -41.569  0.00  0.00     0.094 A 
ATOM      9  C   UNL d   1     -47.008  13.656 -43.897  0.00  0.00     0.075 A 
ATOM     10  C   UNL d   1     -46.379  13.264 -44.629  0.00  0.00     0.071 A 
ATOM     11  C   UNL d   1     -45.351  13.414 -44.558  0.00  0.00     0.074 A 
ENDROOT
BRANCH   5  12
ATOM     12  C   UNL d   1     -47.441  15.460 -40.939  0.00  0.00    -0.002 A 
ATOM     13  C   UNL d   1     -47.742  16.412 -40.995  0.00  0.00     0.014 A 
ATOM     14  C   UNL d   1     -48.352  16.786 -40.296  0.00  0.00     0.001 A 
ATOM     15  C   UNL d   1     -48.661  16.208 -39.541  0.00  0.00     0.000 A 
ATOM     16  C   UNL d   1     -48.360  15.256 -39.484  0.00  0.00     0.001 A 
ATOM     17  C   UNL d   1     -47.750  14.882 -40.183  0.00  0.00     0.014 A 
ENDBRANCH   5  12
BRANCH   7  18
ATOM     18  O   UNL d   1     -43.980  14.105 -43.677  0.00  0.00    -0.360 OA
ATOM     19  H   UNL d   1     -43.757  14.474 -43.231  0.00  0.00     0.217 HD
ENDBRANCH   7  18
BRANCH  10  20
ATOM     20  O   UNL d   1     -46.761  12.746 -45.395  0.00  0.00    -0.361 OA
ATOM     21  H   UNL d   1     -47.374  12.669 -45.441  0.00  0.00     0.217 HD
ENDBRANCH  10  20
TORSDOF 3
ENDMDL
MODEL 3
REMARK VINA RESULT:    -8.311      1.394      4.341
REMARK INTER + INTRA:          -8.186
REMARK INTER:                  -9.186
REMARK INTRA:                   1.000
REMARK UNBOUND:                 1.096
REMARK  3 active torsions:
REMARK  status: ('A' for Active; 'I' for Inactive)
REMARK    1  A    between atoms: O_2  and  C_10 
REMARK    2  A    between atoms: O_4  and  C_13 
REMARK    3  A    between atoms: C_7  and  C_9 
ROOT
ATOM      1  O   UNL d   1     -45.906  15.129 -41.379  0.00  0.00    -0.309 OA
ATOM      2  O   UNL d   1     -47.391  13.970 -43.714  0.00  0.00    -0.287 OA
ATOM      3  C   UNL d   1     -47.399  14.790 -42.188  0.00  0.00     0.081 A 
ATOM      4  C   UNL d   1     -46.904  15.176 -41.410  0.00  0.00     0.095 A 
ATOM      5  C   UNL d   1     -45.402  14.696 -42.127  0.00  0.00     0.090 A 
ATOM      6  C   UNL d   1     -46.896  14.357 -42.936  0.00  0.00     0.190 A 
ATOM      7  C   UNL d   1     -48.439  14.831 -42.234  0.00  0.00     0.085 A 
ATOM      8  C   UNL d   1     -45.897  14.310 -42.905  0.00  0.00     0.094 A 
ATOM      9  C   UNL d   1     -47.414  15.630 -40.623  0.00  0.00     0.075 A 
ATOM     10  C   UNL d   1     -48.454  15.682 -40.648  0.00  0.00     0.071 A 
ATOM     11  C   UNL d   1     -48.970  15.280 -41.458  0.00  0.00     0.074 A 
ENDROOT
BRANCH   5  12
ATOM     12  C   UNL d   1     -44.404  14.649 -42.096  0.00  0.00    -0.002 A 
ATOM     13  C   UNL d   1     -43.857  15.408 -42.451  0.00  0.00     0.014 A 
ATOM     14  C   UNL d   1     -42.858  15.361 -42.420  0.00  0.00     0.001 A 
ATOM     15  C   UNL d   1     -42.407  14.556 -42.035  0.00  0.00     0.000 A 
ATOM     16  C   UNL d   1     -42.954  13.798 -41.681  0.00  0.00     0.001 A 
ATOM     17  C   UNL d   1     -43.953  13.845 -41.711  0.00  0.00     0.014 A 
ENDBRANCH   5  12
BRANCH   7  18
ATOM     18  O   UNL d   1     -48.923  14.441 -43.017  0.00  0.00    -0.360 OA
ATOM     19  H   UNL d   1     -48.755  13.889 -43.242  0.00  0.00     0.217 HD
ENDBRANCH   7  18
BRANCH  10  20
ATOM     20  O   UNL d   1     -48.954  16.116 -39.898  0.00  0.00    -0.361 OA
ATOM     21  H   UNL d   1     -48.687  16.176 -39.342  0.00  0.00     0.217 HD
ENDBRANCH  10  20
TORSDOF 3
ENDMDL
MODEL 4
REMARK VINA RESULT:    -8.161     43.648     44.626
REMARK INTER + INTRA:          -8.019
REMARK INTER:                  -9.018
REMARK INTRA:                   0.999
REMARK UNBOUND:                 1.096
REMARK  3 active torsions:
REMARK  status: ('A' for Active; 'I' for Inactive)
REMARK    1  A    between atoms: O_2  and  C_10 
REMARK    2  A    between atoms: O_4  and  C_13 
REMARK    3  A    between atoms: C_7  and  C_9 
ROOT
ATOM      1  O   UNL d   1     -25.663   8.824  -2.454  0.00  0.00    -0.309 OA
ATOM      2  O   UNL d   1     -25.400   7.233  -4.983  0.00  0.00    -0.287 OA
ATOM      3  C   UNL d   1     -26.262   8.385  -4.019  0.00  0.00     0.081 A 
ATOM      4  C   UNL d   1     -26.350   8.915  -3.175  0.00  0.00     0.095 A 
ATOM      5  C   UNL d   1     -24.889   8.203  -2.575  0.00  0.00     0.090 A 
ATOM      6  C   UNL d   1     -25.488   7.764  -4.140  0.00  0.00     0.190 A 
ATOM      7  C   UNL d   1     -26.969   8.469  -4.779  0.00  0.00     0.085 A 
ATOM      8  C   UNL d   1     -24.801   7.673  -3.419  0.00  0.00     0.094 A 
ATOM      9  C   UNL d   1     -27.151   9.566  -3.034  0.00  0.00     0.075 A 
ATOM     10  C   UNL d   1     -27.870   9.666  -3.781  0.00  0.00     0.071 A 
ATOM     11  C   UNL d   1     -27.778   9.114  -4.659  0.00  0.00     0.074 A 
ENDROOT
BRANCH   5  12
ATOM     12  C   UNL d   1     -24.203   8.113  -1.854  0.00  0.00    -0.002 A 
ATOM     13  C   UNL d   1     -23.406   8.717  -1.842  0.00  0.00     0.014 A 
ATOM     14  C   UNL d   1     -22.720   8.626  -1.121  0.00  0.00     0.001 A 
ATOM     15  C   UNL d   1     -22.830   7.931  -0.411  0.00  0.00     0.000 A 
ATOM     16  C   UNL d   1     -23.627   7.327  -0.422  0.00  0.00     0.001 A 
ATOM     17  C   UNL d   1     -24.313   7.417  -1.144  0.00  0.00     0.014 A 
ENDBRANCH   5  12
BRANCH   7  18
ATOM     18  O   UNL d   1     -26.871   7.934  -5.618  0.00  0.00    -0.360 OA
ATOM     19  H   UNL d   1     -26.428   8.078  -6.027  0.00  0.00     0.217 HD
ENDBRANCH   7  18
BRANCH  10  20
ATOM     20  O   UNL d   1     -28.642  10.288  -3.655  0.00  0.00    -0.361 OA
ATOM     21  H   UNL d   1     -28.800  10.682  -4.108  0.00  0.00     0.217 HD
ENDBRANCH  10  20
TORSDOF 3
ENDMDL
MODEL 5
REMARK VINA RESULT:    -8.144      1.664      4.559
REMARK INTER + INTRA:          -7.999
REMARK INTER:                  -8.998
REMARK INTRA:                   0.999
REMARK UNBOUND:                 1.096
REMARK  3 active torsions:
REMARK  status: ('A' for Active; 'I' for Inactive)
REMARK    1  A    between atoms: O_2  and  C_10 
REMARK    2  A    between atoms: O_4  and  C_13 
REMARK    3  A    between atoms: C_7  and  C_9 
ROOT
ATOM      1  O   UNL d   1     -46.111  14.348 -42.793  0.00  0.00    -0.309 OA
ATOM      2  O   UNL d   1     -47.447  15.545 -40.388  0.00  0.00    -0.287 OA
ATOM      3  C   UNL d   1     -47.554  14.786 -41.941  0.00  0.00     0.081 A 
ATOM      4  C   UNL d   1     -47.109  14.387 -42.743  0.00  0.00     0.095 A 
ATOM      5  C   UNL d   1     -45.558  14.708 -42.042  0.00  0.00     0.090 A 
ATOM      6  C   UNL d   1     -47.001  15.146 -41.190  0.00  0.00     0.190 A 
ATOM      7  C   UNL d   1     -48.592  14.833 -41.875  0.00  0.00     0.085 A 
ATOM      8  C   UNL d   1     -46.003  15.107 -41.240  0.00  0.00     0.094 A 
ATOM      9  C   UNL d   1     -47.671  14.008 -43.534  0.00  0.00     0.075 A 
ATOM     10  C   UNL d   1     -48.711  14.045 -43.489  0.00  0.00     0.071 A 
ATOM     11  C   UNL d   1     -49.175  14.460 -42.654  0.00  0.00     0.074 A 
ENDROOT
BRANCH   5  12
ATOM     12  C   UNL d   1     -44.560  14.669 -42.092  0.00  0.00    -0.002 A 
ATOM     13  C   UNL d   1     -44.049  15.431 -42.490  0.00  0.00     0.014 A 
ATOM     14  C   UNL d   1     -43.052  15.392 -42.540  0.00  0.00     0.001 A 
ATOM     15  C   UNL d   1     -42.564  14.591 -42.192  0.00  0.00     0.000 A 
ATOM     16  C   UNL d   1     -43.075  13.829 -41.794  0.00  0.00     0.001 A 
ATOM     17  C   UNL d   1     -44.073  13.868 -41.744  0.00  0.00     0.014 A 
ENDBRANCH   5  12
BRANCH   7  18
ATOM     18  O   UNL d   1     -49.027  15.235 -41.069  0.00  0.00    -0.360 OA
ATOM     19  H   UNL d   1     -49.380  15.740 -41.127  0.00  0.00     0.217 HD
ENDBRANCH   7  18
BRANCH  10  20
ATOM     20  O   UNL d   1     -49.260  13.683 -44.243  0.00  0.00    -0.361 OA
ATOM     21  H   UNL d   1     -48.984  13.492 -44.763  0.00  0.00     0.217 HD
ENDBRANCH  10  20
TORSDOF 3
ENDMDL
