MODEL 1
REMARK VINA RESULT:   -11.214      0.000      0.000
REMARK INTER + INTRA:          -6.450
REMARK INTER:                 -14.901
REMARK INTRA:                   8.451
REMARK UNBOUND:                 8.697
REMARK  9 active torsions:
REMARK  status: ('A' for Active; 'I' for Inactive)
REMARK    1  A    between atoms: O_3  and  C_17 
REMARK    2  A    between atoms: O_4  and  C_18 
REMARK    3  A    between atoms: O_5  and  C_19 
REMARK    4  A    between atoms: O_7  and  C_32 
REMARK    5  A    between atoms: O_9  and  C_36 
REMARK    6  A    between atoms: O_10  and  C_40 
REMARK    7  A    between atoms: C_11  and  C_13 
REMARK    8  A    between atoms: C_15  and  C_20 
REMARK    9  A    between atoms: C_22  and  C_29 
ROOT
ATOM      1  O   UNL d   1      26.833  38.554  21.506  0.00  0.00    -0.308 OA
ATOM      2  O   UNL d   1      23.899  37.666  21.648  0.00  0.00    -0.287 OA
ATOM      3  C   UNL d   1      26.316  40.184  21.921  0.00  0.00     0.045 A 
ATOM      4  C   UNL d   1      26.077  39.230  21.740  0.00  0.00     0.107 A 
ATOM      5  C   UNL d   1      25.122  38.938  21.785  0.00  0.00     0.082 A 
ATOM      6  C   UNL d   1      25.601  40.845  22.147  0.00  0.00     0.082 A 
ATOM      7  C   UNL d   1      24.406  39.598  22.012  0.00  0.00     0.085 A 
ATOM      8  C   UNL d   1      24.646  40.552  22.193  0.00  0.00     0.075 A 
ATOM      9  C   UNL d   1      26.591  37.558  21.316  0.00  0.00     0.090 A 
ATOM     10  C   UNL d   1      24.857  37.948  21.599  0.00  0.00     0.190 A 
ATOM     11  C   UNL d   1      25.596  37.253  21.363  0.00  0.00     0.094 A 
ENDROOT
BRANCH   3  12
ATOM     12  C   UNL d   1      27.271  40.477  21.876  0.00  0.00     0.014 A 
ATOM     13  C   UNL d   1      27.664  40.769  21.004  0.00  0.00     0.029 A 
ATOM     14  C   UNL d   1      28.619  41.062  20.959  0.00  0.00    -0.001 A 
ATOM     15  C   UNL d   1      29.181  41.063  21.786  0.00  0.00     0.017 A 
ATOM     16  C   UNL d   1      28.789  40.771  22.658  0.00  0.00     0.038 A 
ATOM     17  C   UNL d   1      27.834  40.478  22.703  0.00  0.00     0.076 A 
BRANCH  14  18
ATOM     18  C   UNL d   1      29.012  41.354  20.087  0.00  0.00     0.090 A 
ATOM     19  O   UNL d   1      29.385  40.675  19.454  0.00  0.00    -0.309 OA
ATOM     20  C   UNL d   1      29.778  40.967  18.582  0.00  0.00     0.095 A 
ATOM     21  C   UNL d   1      29.797  41.938  18.342  0.00  0.00     0.081 A 
ATOM     22  C   UNL d   1      30.163  40.248  17.933  0.00  0.00     0.075 A 
ATOM     23  C   UNL d   1      29.424  42.617  18.975  0.00  0.00     0.190 A 
ATOM     24  C   UNL d   1      30.203  42.257  17.438  0.00  0.00     0.085 A 
ATOM     25  O   UNL d   1      29.443  43.587  18.735  0.00  0.00    -0.287 OA
ATOM     26  C   UNL d   1      29.031  42.325  19.847  0.00  0.00     0.094 A 
ATOM     27  C   UNL d   1      30.594  41.556  16.774  0.00  0.00     0.074 A 
ATOM     28  C   UNL d   1      30.573  40.544  17.023  0.00  0.00     0.071 A 
BRANCH  24  29
ATOM     29  O   UNL d   1      30.217  43.230  17.208  0.00  0.00    -0.360 OA
ATOM     30  H   UNL d   1      30.671  43.458  16.852  0.00  0.00     0.217 HD
ENDBRANCH  24  29
BRANCH  28  31
ATOM     31  O   UNL d   1      30.946  39.863  16.393  0.00  0.00    -0.361 OA
ATOM     32  H   UNL d   1      30.723  39.284  16.396  0.00  0.00     0.217 HD
ENDBRANCH  28  31
ENDBRANCH  14  18
BRANCH  17  33
ATOM     33  O   UNL d   1      27.441  40.186  23.575  0.00  0.00    -0.360 OA
ATOM     34  H   UNL d   1      26.845  40.019  23.606  0.00  0.00     0.217 HD
ENDBRANCH  17  33
ENDBRANCH   3  12
BRANCH   6  35
ATOM     35  O   UNL d   1      25.840  41.799  22.328  0.00  0.00    -0.360 OA
ATOM     36  H   UNL d   1      25.517  42.127  22.744  0.00  0.00     0.217 HD
ENDBRANCH   6  35
BRANCH   9  37
ATOM     37  C   UNL d   1      27.310  36.901  21.090  0.00  0.00    -0.002 A 
ATOM     38  C   UNL d   1      27.723  36.905  20.179  0.00  0.00     0.017 A 
ATOM     39  C   UNL d   1      28.441  36.248  19.953  0.00  0.00     0.037 A 
ATOM     40  C   UNL d   1      28.747  35.586  20.637  0.00  0.00     0.065 A 
ATOM     41  C   UNL d   1      28.334  35.581  21.548  0.00  0.00     0.037 A 
ATOM     42  C   UNL d   1      27.615  36.239  21.774  0.00  0.00     0.017 A 
BRANCH  40  43
ATOM     43  O   UNL d   1      29.466  34.928  20.411  0.00  0.00    -0.361 OA
ATOM     44  H   UNL d   1      29.819  35.015  19.908  0.00  0.00     0.217 HD
ENDBRANCH  40  43
ENDBRANCH   9  37
BRANCH   7  45
ATOM     45  O   UNL d   1      23.451  39.306  22.057  0.00  0.00    -0.360 OA
ATOM     46  H   UNL d   1      23.180  39.216  22.607  0.00  0.00     0.217 HD
ENDBRANCH   7  45
TORSDOF 9
ENDMDL
MODEL 2
REMARK VINA RESULT:   -10.896     18.585     20.320
REMARK INTER + INTRA:          -6.020
REMARK INTER:                 -14.526
REMARK INTRA:                   8.506
REMARK UNBOUND:                 8.697
REMARK  9 active torsions:
REMARK  status: ('A' for Active; 'I' for Inactive)
REMARK    1  A    between atoms: O_3  and  C_17 
REMARK    2  A    between atoms: O_4  and  C_18 
REMARK    3  A    between atoms: O_5  and  C_19 
REMARK    4  A    between atoms: O_7  and  C_32 
REMARK    5  A    between atoms: O_9  and  C_36 
REMARK    6  A    between atoms: O_10  and  C_40 
REMARK    7  A    between atoms: C_11  and  C_13 
REMARK    8  A    between atoms: C_15  and  C_20 
REMARK    9  A    between atoms: C_22  and  C_29 
ROOT
ATOM      1  O   UNL d   1      41.405  37.934   5.791  0.00  0.00    -0.308 OA
ATOM      2  O   UNL d   1      43.111  38.907   8.149  0.00  0.00    -0.287 OA
ATOM      3  C   UNL d   1      41.550  39.537   5.079  0.00  0.00     0.045 A 
ATOM      4  C   UNL d   1      41.766  38.911   5.827  0.00  0.00     0.107 A 
ATOM      5  C   UNL d   1      42.322  39.224   6.597  0.00  0.00     0.082 A 
ATOM      6  C   UNL d   1      41.890  40.478   5.100  0.00  0.00     0.082 A 
ATOM      7  C   UNL d   1      42.661  40.164   6.619  0.00  0.00     0.085 A 
ATOM      8  C   UNL d   1      42.445  40.791   5.870  0.00  0.00     0.075 A 
ATOM      9  C   UNL d   1      41.627  37.275   6.567  0.00  0.00     0.090 A 
ATOM     10  C   UNL d   1      42.555  38.583   7.384  0.00  0.00     0.190 A 
ATOM     11  C   UNL d   1      42.205  37.602   7.369  0.00  0.00     0.094 A 
ENDROOT
BRANCH   3  12
ATOM     12  C   UNL d   1      40.995  39.224   4.309  0.00  0.00     0.014 A 
ATOM     13  C   UNL d   1      39.998  39.285   4.354  0.00  0.00     0.029 A 
ATOM     14  C   UNL d   1      39.442  38.972   3.584  0.00  0.00    -0.001 A 
ATOM     15  C   UNL d   1      39.884  38.597   2.768  0.00  0.00     0.017 A 
ATOM     16  C   UNL d   1      40.881  38.535   2.724  0.00  0.00     0.038 A 
ATOM     17  C   UNL d   1      41.436  38.849   3.494  0.00  0.00     0.076 A 
BRANCH  14  18
ATOM     18  C   UNL d   1      38.445  39.033   3.628  0.00  0.00     0.090 A 
ATOM     19  O   UNL d   1      37.985  39.886   3.379  0.00  0.00    -0.309 OA
ATOM     20  C   UNL d   1      36.988  39.947   3.424  0.00  0.00     0.095 A 
ATOM     21  C   UNL d   1      36.451  39.157   3.718  0.00  0.00     0.081 A 
ATOM     22  C   UNL d   1      36.523  40.842   3.161  0.00  0.00     0.075 A 
ATOM     23  C   UNL d   1      36.911  38.305   3.968  0.00  0.00     0.190 A 
ATOM     24  C   UNL d   1      35.412  39.206   3.770  0.00  0.00     0.085 A 
ATOM     25  O   UNL d   1      36.374  37.514   4.262  0.00  0.00    -0.287 OA
ATOM     26  C   UNL d   1      37.908  38.243   3.923  0.00  0.00     0.094 A 
ATOM     27  C   UNL d   1      34.925  40.090   3.512  0.00  0.00     0.074 A 
ATOM     28  C   UNL d   1      35.484  40.914   3.205  0.00  0.00     0.071 A 
BRANCH  24  29
ATOM     29  O   UNL d   1      34.884  38.409   4.066  0.00  0.00    -0.360 OA
ATOM     30  H   UNL d   1      35.175  37.916   4.304  0.00  0.00     0.217 HD
ENDBRANCH  24  29
BRANCH  28  31
ATOM     31  O   UNL d   1      35.028  41.767   2.955  0.00  0.00    -0.361 OA
ATOM     32  H   UNL d   1      34.603  42.014   3.333  0.00  0.00     0.217 HD
ENDBRANCH  28  31
ENDBRANCH  14  18
BRANCH  17  33
ATOM     33  O   UNL d   1      42.433  38.787   3.449  0.00  0.00    -0.360 OA
ATOM     34  H   UNL d   1      42.779  39.004   3.915  0.00  0.00     0.217 HD
ENDBRANCH  17  33
ENDBRANCH   3  12
BRANCH   6  35
ATOM     35  O   UNL d   1      41.673  41.105   4.352  0.00  0.00    -0.360 OA
ATOM     36  H   UNL d   1      41.102  41.340   4.299  0.00  0.00     0.217 HD
ENDBRANCH   6  35
BRANCH   9  37
ATOM     37  C   UNL d   1      41.285  36.335   6.541  0.00  0.00    -0.002 A 
ATOM     38  C   UNL d   1      40.302  36.163   6.482  0.00  0.00     0.017 A 
ATOM     39  C   UNL d   1      39.959  35.224   6.457  0.00  0.00     0.037 A 
ATOM     40  C   UNL d   1      40.601  34.457   6.490  0.00  0.00     0.065 A 
ATOM     41  C   UNL d   1      41.584  34.630   6.550  0.00  0.00     0.037 A 
ATOM     42  C   UNL d   1      41.926  35.570   6.575  0.00  0.00     0.017 A 
BRANCH  40  43
ATOM     43  O   UNL d   1      40.259  33.518   6.465  0.00  0.00    -0.361 OA
ATOM     44  H   UNL d   1      39.969  33.279   6.959  0.00  0.00     0.217 HD
ENDBRANCH  40  43
ENDBRANCH   9  37
BRANCH   7  45
ATOM     45  O   UNL d   1      43.217  40.478   7.389  0.00  0.00    -0.360 OA
ATOM     46  H   UNL d   1      43.321  41.084   7.470  0.00  0.00     0.217 HD
ENDBRANCH   7  45
TORSDOF 9
ENDMDL
MODEL 3
REMARK VINA RESULT:   -10.741      2.457      5.582
REMARK INTER + INTRA:          -5.811
REMARK INTER:                 -14.318
REMARK INTRA:                   8.507
REMARK UNBOUND:                 8.697
REMARK  9 active torsions:
REMARK  status: ('A' for Active; 'I' for Inactive)
REMARK    1  A    between atoms: O_3  and  C_17 
REMARK    2  A    between atoms: O_4  and  C_18 
REMARK    3  A    between atoms: O_5  and  C_19 
REMARK    4  A    between atoms: O_7  and  C_32 
REMARK    5  A    between atoms: O_9  and  C_36 
REMARK    6  A    between atoms: O_10  and  C_40 
REMARK    7  A    between atoms: C_11  and  C_13 
REMARK    8  A    between atoms: C_15  and  C_20 
REMARK    9  A    between atoms: C_22  and  C_29 
ROOT
ATOM      1  O   UNL d   1      28.803  40.277  20.480  0.00  0.00    -0.308 OA
ATOM      2  O   UNL d   1      30.137  40.597  17.735  0.00  0.00    -0.287 OA
ATOM      3  C   UNL d   1      28.689  42.031  20.583  0.00  0.00     0.045 A 
ATOM      4  C   UNL d   1      28.970  41.220  20.070  0.00  0.00     0.107 A 
ATOM      5  C   UNL d   1      29.405  41.320  19.175  0.00  0.00     0.082 A 
ATOM      6  C   UNL d   1      28.843  42.942  20.201  0.00  0.00     0.082 A 
ATOM      7  C   UNL d   1      29.559  42.232  18.793  0.00  0.00     0.085 A 
ATOM      8  C   UNL d   1      29.278  43.043  19.307  0.00  0.00     0.075 A 
ATOM      9  C   UNL d   1      29.093  39.428  19.952  0.00  0.00     0.090 A 
ATOM     10  C   UNL d   1      29.703  40.485  18.629  0.00  0.00     0.190 A 
ATOM     11  C   UNL d   1      29.546  39.532  19.019  0.00  0.00     0.094 A 
ENDROOT
BRANCH   3  12
ATOM     12  C   UNL d   1      28.255  41.930  21.478  0.00  0.00     0.014 A 
ATOM     13  C   UNL d   1      28.816  41.874  22.303  0.00  0.00     0.029 A 
ATOM     14  C   UNL d   1      28.382  41.773  23.198  0.00  0.00    -0.001 A 
ATOM     15  C   UNL d   1      27.385  41.729  23.268  0.00  0.00     0.017 A 
ATOM     16  C   UNL d   1      26.823  41.785  22.442  0.00  0.00     0.038 A 
ATOM     17  C   UNL d   1      27.258  41.886  21.548  0.00  0.00     0.076 A 
BRANCH  14  18
ATOM     18  C   UNL d   1      28.943  41.717  24.024  0.00  0.00     0.090 A 
ATOM     19  O   UNL d   1      29.220  40.825  24.380  0.00  0.00    -0.309 OA
ATOM     20  C   UNL d   1      29.782  40.768  25.205  0.00  0.00     0.095 A 
ATOM     21  C   UNL d   1      30.067  41.604  25.674  0.00  0.00     0.081 A 
ATOM     22  C   UNL d   1      30.063  39.831  25.565  0.00  0.00     0.075 A 
ATOM     23  C   UNL d   1      29.790  42.497  25.318  0.00  0.00     0.190 A 
ATOM     24  C   UNL d   1      30.652  41.562  26.535  0.00  0.00     0.085 A 
ATOM     25  O   UNL d   1      30.075  43.333  25.787  0.00  0.00    -0.287 OA
ATOM     26  C   UNL d   1      29.228  42.553  24.492  0.00  0.00     0.094 A 
ATOM     27  C   UNL d   1      30.945  40.635  26.912  0.00  0.00     0.074 A 
ATOM     28  C   UNL d   1      30.648  39.764  26.424  0.00  0.00     0.071 A 
BRANCH  24  29
ATOM     29  O   UNL d   1      30.931  42.404  26.996  0.00  0.00    -0.360 OA
ATOM     30  H   UNL d   1      31.506  42.457  27.224  0.00  0.00     0.217 HD
ENDBRANCH  24  29
BRANCH  28  31
ATOM     31  O   UNL d   1      30.923  38.870  26.777  0.00  0.00    -0.361 OA
ATOM     32  H   UNL d   1      31.279  38.497  26.433  0.00  0.00     0.217 HD
ENDBRANCH  28  31
ENDBRANCH  14  18
BRANCH  17  33
ATOM     33  O   UNL d   1      26.696  41.942  20.722  0.00  0.00    -0.360 OA
ATOM     34  H   UNL d   1      26.858  41.624  20.215  0.00  0.00     0.217 HD
ENDBRANCH  17  33
ENDBRANCH   3  12
BRANCH   6  35
ATOM     35  O   UNL d   1      28.562  43.753  20.715  0.00  0.00    -0.360 OA
ATOM     36  H   UNL d   1      28.416  44.275  20.414  0.00  0.00     0.217 HD
ENDBRANCH   6  35
BRANCH   9  37
ATOM     37  C   UNL d   1      28.938  38.518  20.337  0.00  0.00    -0.002 A 
ATOM     38  C   UNL d   1      29.320  38.282  21.230  0.00  0.00     0.017 A 
ATOM     39  C   UNL d   1      29.165  37.373  21.616  0.00  0.00     0.037 A 
ATOM     40  C   UNL d   1      28.627  36.700  21.108  0.00  0.00     0.065 A 
ATOM     41  C   UNL d   1      28.245  36.936  20.215  0.00  0.00     0.037 A 
ATOM     42  C   UNL d   1      28.400  37.845  19.830  0.00  0.00     0.017 A 
BRANCH  40  43
ATOM     43  O   UNL d   1      28.472  35.790  21.494  0.00  0.00    -0.361 OA
ATOM     44  H   UNL d   1      28.950  35.403  21.581  0.00  0.00     0.217 HD
ENDBRANCH  40  43
ENDBRANCH   9  37
BRANCH   7  45
ATOM     45  O   UNL d   1      29.994  42.332  17.898  0.00  0.00    -0.360 OA
ATOM     46  H   UNL d   1      29.904  42.848  17.566  0.00  0.00     0.217 HD
ENDBRANCH   7  45
TORSDOF 9
ENDMDL
MODEL 4
REMARK VINA RESULT:   -10.603     41.924     44.512
REMARK INTER + INTRA:          -5.625
REMARK INTER:                 -14.401
REMARK INTRA:                   8.776
REMARK UNBOUND:                 8.697
REMARK  9 active torsions:
REMARK  status: ('A' for Active; 'I' for Inactive)
REMARK    1  A    between atoms: O_3  and  C_17 
REMARK    2  A    between atoms: O_4  and  C_18 
REMARK    3  A    between atoms: O_5  and  C_19 
REMARK    4  A    between atoms: O_7  and  C_32 
REMARK    5  A    between atoms: O_9  and  C_36 
REMARK    6  A    between atoms: O_10  and  C_40 
REMARK    7  A    between atoms: C_11  and  C_13 
REMARK    8  A    between atoms: C_15  and  C_20 
REMARK    9  A    between atoms: C_22  and  C_29 
ROOT
ATOM      1  O   UNL d   1       3.730   6.355   2.140  0.00  0.00    -0.308 OA
ATOM      2  O   UNL d   1       1.346   8.223   2.639  0.00  0.00    -0.287 OA
ATOM      3  C   UNL d   1       3.633   6.758   0.429  0.00  0.00     0.045 A 
ATOM      4  C   UNL d   1       3.279   6.874   1.357  0.00  0.00     0.107 A 
ATOM      5  C   UNL d   1       2.502   7.482   1.523  0.00  0.00     0.082 A 
ATOM      6  C   UNL d   1       3.211   7.250  -0.333  0.00  0.00     0.082 A 
ATOM      7  C   UNL d   1       2.080   7.974   0.762  0.00  0.00     0.085 A 
ATOM      8  C   UNL d   1       2.434   7.858  -0.166  0.00  0.00     0.075 A 
ATOM      9  C   UNL d   1       3.366   6.470   3.109  0.00  0.00     0.090 A 
ATOM     10  C   UNL d   1       2.123   7.612   2.484  0.00  0.00     0.190 A 
ATOM     11  C   UNL d   1       2.557   7.104   3.283  0.00  0.00     0.094 A 
ENDROOT
BRANCH   3  12
ATOM     12  C   UNL d   1       4.409   6.150   0.262  0.00  0.00     0.014 A 
ATOM     13  C   UNL d   1       5.343   6.481   0.404  0.00  0.00     0.029 A 
ATOM     14  C   UNL d   1       6.119   5.873   0.237  0.00  0.00    -0.001 A 
ATOM     15  C   UNL d   1       5.962   4.935  -0.071  0.00  0.00     0.017 A 
ATOM     16  C   UNL d   1       5.029   4.604  -0.212  0.00  0.00     0.038 A 
ATOM     17  C   UNL d   1       4.253   5.212  -0.046  0.00  0.00     0.076 A 
BRANCH  14  18
ATOM     18  C   UNL d   1       7.052   6.204   0.379  0.00  0.00     0.090 A 
ATOM     19  O   UNL d   1       7.764   5.992  -0.290  0.00  0.00    -0.309 OA
ATOM     20  C   UNL d   1       8.698   6.322  -0.149  0.00  0.00     0.095 A 
ATOM     21  C   UNL d   1       8.918   6.865   0.661  0.00  0.00     0.081 A 
ATOM     22  C   UNL d   1       9.429   6.093  -0.855  0.00  0.00     0.075 A 
ATOM     23  C   UNL d   1       8.206   7.077   1.330  0.00  0.00     0.190 A 
ATOM     24  C   UNL d   1       9.886   7.216   0.822  0.00  0.00     0.085 A 
ATOM     25  O   UNL d   1       8.427   7.619   2.141  0.00  0.00    -0.287 OA
ATOM     26  C   UNL d   1       7.273   6.746   1.189  0.00  0.00     0.094 A 
ATOM     27  C   UNL d   1      10.633   6.999   0.130  0.00  0.00     0.074 A 
ATOM     28  C   UNL d   1      10.404   6.434  -0.715  0.00  0.00     0.071 A 
BRANCH  24  29
ATOM     29  O   UNL d   1      10.095   7.758   1.636  0.00  0.00    -0.360 OA
ATOM     30  H   UNL d   1      10.132   8.376   1.597  0.00  0.00     0.217 HD
ENDBRANCH  24  29
BRANCH  28  31
ATOM     31  O   UNL d   1      11.113   6.220  -1.386  0.00  0.00    -0.361 OA
ATOM     32  H   UNL d   1      11.708   6.200  -1.212  0.00  0.00     0.217 HD
ENDBRANCH  28  31
ENDBRANCH  14  18
BRANCH  17  33
ATOM     33  O   UNL d   1       3.320   4.881  -0.187  0.00  0.00    -0.360 OA
ATOM     34  H   UNL d   1       3.139   4.345   0.066  0.00  0.00     0.217 HD
ENDBRANCH  17  33
ENDBRANCH   3  12
BRANCH   6  35
ATOM     35  O   UNL d   1       3.565   7.134  -1.261  0.00  0.00    -0.360 OA
ATOM     36  H   UNL d   1       3.587   7.619  -1.647  0.00  0.00     0.217 HD
ENDBRANCH   6  35
BRANCH   9  37
ATOM     37  C   UNL d   1       3.791   5.977   3.868  0.00  0.00    -0.002 A 
ATOM     38  C   UNL d   1       4.548   6.393   4.373  0.00  0.00     0.017 A 
ATOM     39  C   UNL d   1       4.974   5.900   5.131  0.00  0.00     0.037 A 
ATOM     40  C   UNL d   1       4.643   4.991   5.385  0.00  0.00     0.065 A 
ATOM     41  C   UNL d   1       3.886   4.575   4.880  0.00  0.00     0.037 A 
ATOM     42  C   UNL d   1       3.461   5.069   4.121  0.00  0.00     0.017 A 
BRANCH  40  43
ATOM     43  O   UNL d   1       5.068   4.497   6.143  0.00  0.00    -0.361 OA
ATOM     44  H   UNL d   1       5.108   4.762   6.703  0.00  0.00     0.217 HD
ENDBRANCH  40  43
ENDBRANCH   9  37
BRANCH   7  45
ATOM     45  O   UNL d   1       1.304   8.581   0.929  0.00  0.00    -0.360 OA
ATOM     46  H   UNL d   1       1.270   9.128   0.637  0.00  0.00     0.217 HD
ENDBRANCH   7  45
TORSDOF 9
ENDMDL
MODEL 5
REMARK VINA RESULT:   -10.344     41.429     44.339
REMARK INTER + INTRA:          -5.275
REMARK INTER:                 -13.949
REMARK INTRA:                   8.674
REMARK UNBOUND:                 8.697
REMARK  9 active torsions:
REMARK  status: ('A' for Active; 'I' for Inactive)
REMARK    1  A    between atoms: O_3  and  C_17 
REMARK    2  A    between atoms: O_4  and  C_18 
REMARK    3  A    between atoms: O_5  and  C_19 
REMARK    4  A    between atoms: O_7  and  C_32 
REMARK    5  A    between atoms: O_9  and  C_36 
REMARK    6  A    between atoms: O_10  and  C_40 
REMARK    7  A    between atoms: C_11  and  C_13 
REMARK    8  A    between atoms: C_15  and  C_20 
REMARK    9  A    between atoms: C_22  and  C_29 
ROOT
ATOM      1  O   UNL d   1       6.284   6.050   0.521  0.00  0.00    -0.308 OA
ATOM      2  O   UNL d   1       6.834   3.757  -1.444  0.00  0.00    -0.287 OA
ATOM      3  C   UNL d   1       4.648   5.429   0.721  0.00  0.00     0.045 A 
ATOM      4  C   UNL d   1       5.547   5.349   0.292  0.00  0.00     0.107 A 
ATOM      5  C   UNL d   1       5.730   4.603  -0.349  0.00  0.00     0.082 A 
ATOM      6  C   UNL d   1       3.932   4.764   0.511  0.00  0.00     0.082 A 
ATOM      7  C   UNL d   1       5.014   3.938  -0.560  0.00  0.00     0.085 A 
ATOM      8  C   UNL d   1       4.115   4.019  -0.130  0.00  0.00     0.075 A 
ATOM      9  C   UNL d   1       7.223   5.972   0.077  0.00  0.00     0.090 A 
ATOM     10  C   UNL d   1       6.662   4.507  -0.804  0.00  0.00     0.190 A 
ATOM     11  C   UNL d   1       7.413   5.195  -0.590  0.00  0.00     0.094 A 
ENDROOT
BRANCH   3  12
ATOM     12  C   UNL d   1       4.465   6.175   1.362  0.00  0.00     0.014 A 
ATOM     13  C   UNL d   1       4.703   6.074   2.328  0.00  0.00     0.029 A 
ATOM     14  C   UNL d   1       4.520   6.820   2.969  0.00  0.00    -0.001 A 
ATOM     15  C   UNL d   1       4.099   7.667   2.644  0.00  0.00     0.017 A 
ATOM     16  C   UNL d   1       3.862   7.768   1.678  0.00  0.00     0.038 A 
ATOM     17  C   UNL d   1       4.045   7.022   1.037  0.00  0.00     0.076 A 
BRANCH  14  18
ATOM     18  C   UNL d   1       4.757   6.718   3.935  0.00  0.00     0.090 A 
ATOM     19  O   UNL d   1       5.304   7.420   4.392  0.00  0.00    -0.309 OA
ATOM     20  C   UNL d   1       5.542   7.318   5.358  0.00  0.00     0.095 A 
ATOM     21  C   UNL d   1       5.232   6.515   5.867  0.00  0.00     0.081 A 
ATOM     22  C   UNL d   1       6.113   8.058   5.820  0.00  0.00     0.075 A 
ATOM     23  C   UNL d   1       4.685   5.814   5.411  0.00  0.00     0.190 A 
ATOM     24  C   UNL d   1       5.471   6.396   6.874  0.00  0.00     0.085 A 
ATOM     25  O   UNL d   1       4.375   5.011   5.920  0.00  0.00    -0.287 OA
ATOM     26  C   UNL d   1       4.447   5.915   4.445  0.00  0.00     0.094 A 
ATOM     27  C   UNL d   1       6.041   7.123   7.357  0.00  0.00     0.074 A 
ATOM     28  C   UNL d   1       6.364   7.959   6.826  0.00  0.00     0.071 A 
BRANCH  24  29
ATOM     29  O   UNL d   1       5.156   5.589   7.374  0.00  0.00    -0.360 OA
ATOM     30  H   UNL d   1       4.782   5.655   7.864  0.00  0.00     0.217 HD
ENDBRANCH  24  29
BRANCH  28  31
ATOM     31  O   UNL d   1       6.911   8.663   7.279  0.00  0.00    -0.361 OA
ATOM     32  H   UNL d   1       7.143   9.135   6.951  0.00  0.00     0.217 HD
ENDBRANCH  28  31
ENDBRANCH  14  18
BRANCH  17  33
ATOM     33  O   UNL d   1       3.808   7.124   0.071  0.00  0.00    -0.360 OA
ATOM     34  H   UNL d   1       3.995   6.699  -0.341  0.00  0.00     0.217 HD
ENDBRANCH  17  33
ENDBRANCH   3  12
BRANCH   6  35
ATOM     35  O   UNL d   1       3.033   4.845   0.941  0.00  0.00    -0.360 OA
ATOM     36  H   UNL d   1       2.652   5.307   0.779  0.00  0.00     0.217 HD
ENDBRANCH   6  35
BRANCH   9  37
ATOM     37  C   UNL d   1       7.936   6.639   0.291  0.00  0.00    -0.002 A 
ATOM     38  C   UNL d   1       8.127   7.388  -0.345  0.00  0.00     0.017 A 
ATOM     39  C   UNL d   1       8.840   8.055  -0.132  0.00  0.00     0.037 A 
ATOM     40  C   UNL d   1       9.363   7.974   0.717  0.00  0.00     0.065 A 
ATOM     41  C   UNL d   1       9.172   7.226   1.353  0.00  0.00     0.037 A 
ATOM     42  C   UNL d   1       8.459   6.559   1.139  0.00  0.00     0.017 A 
BRANCH  40  43
ATOM     43  O   UNL d   1      10.077   8.642   0.930  0.00  0.00    -0.361 OA
ATOM     44  H   UNL d   1      10.142   9.149   0.579  0.00  0.00     0.217 HD
ENDBRANCH  40  43
ENDBRANCH   9  37
BRANCH   7  45
ATOM     45  O   UNL d   1       5.197   3.192  -1.201  0.00  0.00    -0.360 OA
ATOM     46  H   UNL d   1       5.342   2.629  -0.987  0.00  0.00     0.217 HD
ENDBRANCH   7  45
TORSDOF 9
ENDMDL
