MODEL 1
REMARK VINA RESULT:    -7.166      0.000      0.000
REMARK INTER + INTRA:          -0.194
REMARK INTER:                 -14.323
REMARK INTRA:                  14.129
REMARK UNBOUND:                13.675
REMARK  19 active torsions:
REMARK  status: ('A' for Active; 'I' for Inactive)
REMARK    1  A    between atoms: C_13  and  O_1 
REMARK    2  A    between atoms: O_1  and  C_17 
REMARK    3  A    between atoms: C_14  and  O_2 
REMARK    4  A    between atoms: O_2  and  C_18 
REMARK    5  A    between atoms: O_3  and  C_15 
REMARK    6  A    between atoms: O_4  and  C_16 
REMARK    7  A    between atoms: O_9  and  C_29 
REMARK    8  A    between atoms: O_10  and  C_30 
REMARK    9  A    between atoms: O_11  and  C_33 
REMARK   10  A    between atoms: O_12  and  C_34 
REMARK   11  A    between atoms: C_13  and  C_14 
REMARK   12  A    between atoms: C_13  and  C_15 
REMARK   13  A    between atoms: C_14  and  C_16 
REMARK   14  A    between atoms: C_17  and  C_21 
REMARK   15  A    between atoms: C_18  and  C_22 
REMARK   16  A    between atoms: C_19  and  C_23 
REMARK   17  A    between atoms: C_20  and  C_24 
REMARK   18  A    between atoms: C_21  and  C_23 
REMARK   19  A    between atoms: C_22  and  C_24 
ROOT
ATOM      1  C   UNL d   1     -40.806  12.588   0.570  0.00  0.00     0.269 C 
ENDROOT
BRANCH   1   2
ATOM      2  O   UNL d   1     -40.321  13.072   1.298  0.00  0.00    -0.299 OA
BRANCH   2   3
ATOM      3  C   UNL d   1     -40.126  14.048   1.207  0.00  0.00     0.283 C 
ATOM      4  O   UNL d   1     -39.481  14.367   0.513  0.00  0.00    -0.260 OA
BRANCH   3   5
ATOM      5  C   UNL d   1     -40.578  14.706   1.810  0.00  0.00     0.083 C 
BRANCH   5   6
ATOM      6  C   UNL d   1     -40.033  15.277   2.424  0.00  0.00     0.017 C 
BRANCH   6   7
ATOM      7  C   UNL d   1     -40.473  15.754   3.186  0.00  0.00    -0.033 A 
ATOM      8  C   UNL d   1     -39.989  16.487   3.663  0.00  0.00     0.050 A 
ATOM      9  C   UNL d   1     -40.429  16.963   4.425  0.00  0.00     0.099 A 
ATOM     10  C   UNL d   1     -41.352  16.706   4.708  0.00  0.00     0.098 A 
ATOM     11  C   UNL d   1     -41.836  15.973   4.231  0.00  0.00     0.040 A 
ATOM     12  C   UNL d   1     -41.397  15.497   3.469  0.00  0.00     0.014 A 
BRANCH   9  13
ATOM     13  O   UNL d   1     -39.944  17.696   4.903  0.00  0.00    -0.358 OA
ATOM     14  H   UNL d   1     -39.506  17.558   5.319  0.00  0.00     0.217 HD
ENDBRANCH   9  13
BRANCH  10  15
ATOM     15  O   UNL d   1     -41.792  17.182   5.470  0.00  0.00    -0.358 OA
ATOM     16  H   UNL d   1     -42.028  17.750   5.386  0.00  0.00     0.217 HD
ENDBRANCH  10  15
ENDBRANCH   6   7
ENDBRANCH   5   6
ENDBRANCH   3   5
ENDBRANCH   2   3
ENDBRANCH   1   2
BRANCH   1  17
ATOM     17  C   UNL d   1     -41.686  12.152   0.760  0.00  0.00     0.269 C 
BRANCH  17  18
ATOM     18  O   UNL d   1     -42.494  12.404   0.228  0.00  0.00    -0.299 OA
BRANCH  18  19
ATOM     19  C   UNL d   1     -43.366  12.566   0.690  0.00  0.00     0.283 C 
ATOM     20  O   UNL d   1     -44.002  11.808   0.838  0.00  0.00    -0.260 OA
BRANCH  19  21
ATOM     21  C   UNL d   1     -43.603  13.486   1.003  0.00  0.00     0.083 C 
BRANCH  21  22
ATOM     22  C   UNL d   1     -44.069  14.119   0.386  0.00  0.00     0.017 C 
BRANCH  22  23
ATOM     23  C   UNL d   1     -44.163  15.083   0.636  0.00  0.00    -0.033 A 
ATOM     24  C   UNL d   1     -44.002  15.795  -0.047  0.00  0.00     0.050 A 
ATOM     25  C   UNL d   1     -44.096  16.759   0.204  0.00  0.00     0.099 A 
ATOM     26  C   UNL d   1     -44.351  17.010   1.137  0.00  0.00     0.098 A 
ATOM     27  C   UNL d   1     -44.512  16.298   1.820  0.00  0.00     0.040 A 
ATOM     28  C   UNL d   1     -44.418  15.334   1.570  0.00  0.00     0.014 A 
BRANCH  25  29
ATOM     29  O   UNL d   1     -43.934  17.471  -0.479  0.00  0.00    -0.358 OA
ATOM     30  H   UNL d   1     -43.815  18.052  -0.299  0.00  0.00     0.217 HD
ENDBRANCH  25  29
BRANCH  26  31
ATOM     31  O   UNL d   1     -44.445  17.974   1.388  0.00  0.00    -0.358 OA
ATOM     32  H   UNL d   1     -44.927  18.303   1.178  0.00  0.00     0.217 HD
ENDBRANCH  26  31
ENDBRANCH  22  23
ENDBRANCH  21  22
ENDBRANCH  19  21
ENDBRANCH  18  19
ENDBRANCH  17  18
BRANCH  17  33
ATOM     33  C   UNL d   1     -41.757  11.463   1.481  0.00  0.00     0.173 C 
ATOM     34  O   UNL d   1     -41.897  11.746   2.430  0.00  0.00    -0.648 OA
BRANCH  33  35
ATOM     35  O   UNL d   1     -41.687  10.492   1.254  0.00  0.00    -0.774 OA
ATOM     36  H   UNL d   1     -41.429  10.097   1.657  0.00  0.00     0.167 HD
ENDBRANCH  33  35
ENDBRANCH  17  33
ENDBRANCH   1  17
BRANCH   1  37
ATOM     37  C   UNL d   1     -40.413  12.542  -0.348  0.00  0.00     0.173 C 
ATOM     38  O   UNL d   1     -40.760  13.138  -1.072  0.00  0.00    -0.648 OA
BRANCH  37  39
ATOM     39  O   UNL d   1     -39.672  11.899  -0.542  0.00  0.00    -0.774 OA
ATOM     40  H   UNL d   1     -39.088  12.103  -0.588  0.00  0.00     0.167 HD
ENDBRANCH  37  39
ENDBRANCH   1  37
TORSDOF 19
ENDMDL
MODEL 2
REMARK VINA RESULT:    -7.058      1.415      4.125
REMARK INTER + INTRA:           0.015
REMARK INTER:                 -12.919
REMARK INTRA:                  12.934
REMARK UNBOUND:                13.675
REMARK  19 active torsions:
REMARK  status: ('A' for Active; 'I' for Inactive)
REMARK    1  A    between atoms: C_13  and  O_1 
REMARK    2  A    between atoms: O_1  and  C_17 
REMARK    3  A    between atoms: C_14  and  O_2 
REMARK    4  A    between atoms: O_2  and  C_18 
REMARK    5  A    between atoms: O_3  and  C_15 
REMARK    6  A    between atoms: O_4  and  C_16 
REMARK    7  A    between atoms: O_9  and  C_29 
REMARK    8  A    between atoms: O_10  and  C_30 
REMARK    9  A    between atoms: O_11  and  C_33 
REMARK   10  A    between atoms: O_12  and  C_34 
REMARK   11  A    between atoms: C_13  and  C_14 
REMARK   12  A    between atoms: C_13  and  C_15 
REMARK   13  A    between atoms: C_14  and  C_16 
REMARK   14  A    between atoms: C_17  and  C_21 
REMARK   15  A    between atoms: C_18  and  C_22 
REMARK   16  A    between atoms: C_19  and  C_23 
REMARK   17  A    between atoms: C_20  and  C_24 
REMARK   18  A    between atoms: C_21  and  C_23 
REMARK   19  A    between atoms: C_22  and  C_24 
ROOT
ATOM      1  C   UNL d   1     -42.654  11.116  -0.078  0.00  0.00     0.269 C 
ENDROOT
BRANCH   1   2
ATOM      2  O   UNL d   1     -42.668  11.891  -0.709  0.00  0.00    -0.299 OA
BRANCH   2   3
ATOM      3  C   UNL d   1     -43.530  12.354  -0.914  0.00  0.00     0.283 C 
ATOM      4  O   UNL d   1     -44.066  12.081  -1.712  0.00  0.00    -0.260 OA
BRANCH   3   5
ATOM      5  C   UNL d   1     -43.856  13.090  -0.320  0.00  0.00     0.083 C 
BRANCH   5   6
ATOM      6  C   UNL d   1     -43.813  14.039  -0.630  0.00  0.00     0.017 C 
BRANCH   6   7
ATOM      7  C   UNL d   1     -43.829  14.785   0.036  0.00  0.00    -0.033 A 
ATOM      8  C   UNL d   1     -44.327  14.675   0.897  0.00  0.00     0.050 A 
ATOM      9  C   UNL d   1     -44.343  15.420   1.563  0.00  0.00     0.099 A 
ATOM     10  C   UNL d   1     -43.863  16.275   1.369  0.00  0.00     0.098 A 
ATOM     11  C   UNL d   1     -43.365  16.385   0.509  0.00  0.00     0.040 A 
ATOM     12  C   UNL d   1     -43.348  15.640  -0.158  0.00  0.00     0.014 A 
BRANCH   9  13
ATOM     13  O   UNL d   1     -44.841  15.310   2.424  0.00  0.00    -0.358 OA
ATOM     14  H   UNL d   1     -45.021  15.810   2.743  0.00  0.00     0.217 HD
ENDBRANCH   9  13
BRANCH  10  15
ATOM     15  O   UNL d   1     -43.879  17.020   2.036  0.00  0.00    -0.358 OA
ATOM     16  H   UNL d   1     -44.315  17.460   1.999  0.00  0.00     0.217 HD
ENDBRANCH  10  15
ENDBRANCH   6   7
ENDBRANCH   5   6
ENDBRANCH   3   5
ENDBRANCH   2   3
ENDBRANCH   1   2
BRANCH   1  17
ATOM     17  C   UNL d   1     -41.961  11.068   0.642  0.00  0.00     0.269 C 
BRANCH  17  18
ATOM     18  O   UNL d   1     -41.990  11.712   1.406  0.00  0.00    -0.299 OA
BRANCH  18  19
ATOM     19  C   UNL d   1     -41.289  12.421   1.489  0.00  0.00     0.283 C 
ATOM     20  O   UNL d   1     -40.589  12.518   0.781  0.00  0.00    -0.260 OA
BRANCH  19  21
ATOM     21  C   UNL d   1     -41.287  13.032   2.280  0.00  0.00     0.083 C 
BRANCH  21  22
ATOM     22  C   UNL d   1     -40.875  13.941   2.209  0.00  0.00     0.017 C 
BRANCH  22  23
ATOM     23  C   UNL d   1     -41.036  14.620   2.925  0.00  0.00    -0.033 A 
ATOM     24  C   UNL d   1     -41.658  14.413   3.680  0.00  0.00     0.050 A 
ATOM     25  C   UNL d   1     -41.819  15.093   4.396  0.00  0.00     0.099 A 
ATOM     26  C   UNL d   1     -41.358  15.979   4.357  0.00  0.00     0.098 A 
ATOM     27  C   UNL d   1     -40.736  16.186   3.602  0.00  0.00     0.040 A 
ATOM     28  C   UNL d   1     -40.575  15.507   2.886  0.00  0.00     0.014 A 
BRANCH  25  29
ATOM     29  O   UNL d   1     -42.441  14.886   5.151  0.00  0.00    -0.358 OA
ATOM     30  H   UNL d   1     -42.299  14.437   5.555  0.00  0.00     0.217 HD
ENDBRANCH  25  29
BRANCH  26  31
ATOM     31  O   UNL d   1     -41.519  16.659   5.073  0.00  0.00    -0.358 OA
ATOM     32  H   UNL d   1     -42.066  16.948   5.108  0.00  0.00     0.217 HD
ENDBRANCH  26  31
ENDBRANCH  22  23
ENDBRANCH  21  22
ENDBRANCH  19  21
ENDBRANCH  18  19
ENDBRANCH  17  18
BRANCH  17  33
ATOM     33  C   UNL d   1     -41.240  10.377   0.597  0.00  0.00     0.173 C 
ATOM     34  O   UNL d   1     -41.102   9.748   1.362  0.00  0.00    -0.648 OA
BRANCH  33  35
ATOM     35  O   UNL d   1     -40.657  10.314  -0.213  0.00  0.00    -0.774 OA
ATOM     36  H   UNL d   1     -40.539   9.762  -0.468  0.00  0.00     0.167 HD
ENDBRANCH  33  35
ENDBRANCH  17  33
ENDBRANCH   1  17
BRANCH   1  37
ATOM     37  C   UNL d   1     -43.334  10.387  -0.166  0.00  0.00     0.173 C 
ATOM     38  O   UNL d   1     -43.276   9.739  -0.926  0.00  0.00    -0.648 OA
BRANCH  37  39
ATOM     39  O   UNL d   1     -44.071  10.307   0.505  0.00  0.00    -0.774 OA
ATOM     40  H   UNL d   1     -44.566  10.678   0.468  0.00  0.00     0.167 HD
ENDBRANCH  37  39
ENDBRANCH   1  37
TORSDOF 19
ENDMDL
MODEL 3
REMARK VINA RESULT:    -7.054      1.643      5.901
REMARK INTER + INTRA:           0.023
REMARK INTER:                 -12.992
REMARK INTRA:                  13.014
REMARK UNBOUND:                13.675
REMARK  19 active torsions:
REMARK  status: ('A' for Active; 'I' for Inactive)
REMARK    1  A    between atoms: C_13  and  O_1 
REMARK    2  A    between atoms: O_1  and  C_17 
REMARK    3  A    between atoms: C_14  and  O_2 
REMARK    4  A    between atoms: O_2  and  C_18 
REMARK    5  A    between atoms: O_3  and  C_15 
REMARK    6  A    between atoms: O_4  and  C_16 
REMARK    7  A    between atoms: O_9  and  C_29 
REMARK    8  A    between atoms: O_10  and  C_30 
REMARK    9  A    between atoms: O_11  and  C_33 
REMARK   10  A    between atoms: O_12  and  C_34 
REMARK   11  A    between atoms: C_13  and  C_14 
REMARK   12  A    between atoms: C_13  and  C_15 
REMARK   13  A    between atoms: C_14  and  C_16 
REMARK   14  A    between atoms: C_17  and  C_21 
REMARK   15  A    between atoms: C_18  and  C_22 
REMARK   16  A    between atoms: C_19  and  C_23 
REMARK   17  A    between atoms: C_20  and  C_24 
REMARK   18  A    between atoms: C_21  and  C_23 
REMARK   19  A    between atoms: C_22  and  C_24 
ROOT
ATOM      1  C   UNL d   1     -43.531  16.039   2.233  0.00  0.00     0.269 C 
ENDROOT
BRANCH   1   2
ATOM      2  O   UNL d   1     -44.115  15.234   2.125  0.00  0.00    -0.299 OA
BRANCH   2   3
ATOM      3  C   UNL d   1     -44.185  14.783   1.235  0.00  0.00     0.283 C 
ATOM      4  O   UNL d   1     -44.469  15.306   0.431  0.00  0.00    -0.260 OA
BRANCH   3   5
ATOM      5  C   UNL d   1     -43.972  13.810   1.150  0.00  0.00     0.083 C 
BRANCH   5   6
ATOM      6  C   UNL d   1     -44.070  13.353   0.266  0.00  0.00     0.017 C 
BRANCH   6   7
ATOM      7  C   UNL d   1     -43.793  12.397   0.164  0.00  0.00    -0.033 A 
ATOM      8  C   UNL d   1     -43.720  11.992  -0.748  0.00  0.00     0.050 A 
ATOM      9  C   UNL d   1     -43.443  11.037  -0.850  0.00  0.00     0.099 A 
ATOM     10  C   UNL d   1     -43.239  10.486  -0.040  0.00  0.00     0.098 A 
ATOM     11  C   UNL d   1     -43.312  10.891   0.871  0.00  0.00     0.040 A 
ATOM     12  C   UNL d   1     -43.589  11.847   0.973  0.00  0.00     0.014 A 
BRANCH   9  13
ATOM     13  O   UNL d   1     -43.371  10.632  -1.761  0.00  0.00    -0.358 OA
ATOM     14  H   UNL d   1     -42.821  10.436  -1.970  0.00  0.00     0.217 HD
ENDBRANCH   9  13
BRANCH  10  15
ATOM     15  O   UNL d   1     -42.962   9.531  -0.142  0.00  0.00    -0.358 OA
ATOM     16  H   UNL d   1     -42.824   9.193   0.359  0.00  0.00     0.217 HD
ENDBRANCH  10  15
ENDBRANCH   6   7
ENDBRANCH   5   6
ENDBRANCH   3   5
ENDBRANCH   2   3
ENDBRANCH   1   2
BRANCH   1  17
ATOM     17  C   UNL d   1     -42.810  16.044   2.926  0.00  0.00     0.269 C 
BRANCH  17  18
ATOM     18  O   UNL d   1     -41.857  15.901   2.657  0.00  0.00    -0.299 OA
BRANCH  18  19
ATOM     19  C   UNL d   1     -41.367  15.085   2.963  0.00  0.00     0.283 C 
ATOM     20  O   UNL d   1     -41.185  14.947   3.937  0.00  0.00    -0.260 OA
BRANCH  19  21
ATOM     21  C   UNL d   1     -41.060  14.406   2.296  0.00  0.00     0.083 C 
BRANCH  21  22
ATOM     22  C   UNL d   1     -40.392  14.660   1.597  0.00  0.00     0.017 C 
BRANCH  22  23
ATOM     23  C   UNL d   1     -40.362  14.162   0.730  0.00  0.00    -0.033 A 
ATOM     24  C   UNL d   1     -40.154  13.184   0.722  0.00  0.00     0.050 A 
ATOM     25  C   UNL d   1     -40.125  12.686  -0.145  0.00  0.00     0.099 A 
ATOM     26  C   UNL d   1     -40.302  13.167  -1.004  0.00  0.00     0.098 A 
ATOM     27  C   UNL d   1     -40.510  14.145  -0.996  0.00  0.00     0.040 A 
ATOM     28  C   UNL d   1     -40.540  14.642  -0.129  0.00  0.00     0.014 A 
BRANCH  25  29
ATOM     29  O   UNL d   1     -39.917  11.708  -0.153  0.00  0.00    -0.358 OA
ATOM     30  H   UNL d   1     -39.638  11.446   0.335  0.00  0.00     0.217 HD
ENDBRANCH  25  29
BRANCH  26  31
ATOM     31  O   UNL d   1     -40.273  12.669  -1.871  0.00  0.00    -0.358 OA
ATOM     32  H   UNL d   1     -40.784  12.394  -2.088  0.00  0.00     0.217 HD
ENDBRANCH  26  31
ENDBRANCH  22  23
ENDBRANCH  21  22
ENDBRANCH  19  21
ENDBRANCH  18  19
ENDBRANCH  17  18
BRANCH  17  33
ATOM     33  C   UNL d   1     -43.041  16.191   3.888  0.00  0.00     0.173 C 
ATOM     34  O   UNL d   1     -42.586  16.915   4.406  0.00  0.00    -0.648 OA
BRANCH  33  35
ATOM     35  O   UNL d   1     -43.727  15.614   4.331  0.00  0.00    -0.774 OA
ATOM     36  H   UNL d   1     -43.687  15.496   4.938  0.00  0.00     0.167 HD
ENDBRANCH  33  35
ENDBRANCH  17  33
ENDBRANCH   1  17
BRANCH   1  37
ATOM     37  C   UNL d   1     -43.668  16.838   1.649  0.00  0.00     0.173 C 
ATOM     38  O   UNL d   1     -44.399  17.489   1.855  0.00  0.00    -0.648 OA
BRANCH  37  39
ATOM     39  O   UNL d   1     -43.074  16.987   0.858  0.00  0.00    -0.774 OA
ATOM     40  H   UNL d   1     -43.319  17.154   0.313  0.00  0.00     0.167 HD
ENDBRANCH  37  39
ENDBRANCH   1  37
TORSDOF 19
ENDMDL
MODEL 4
REMARK VINA RESULT:    -7.050      1.614      5.725
REMARK INTER + INTRA:           0.032
REMARK INTER:                 -13.897
REMARK INTRA:                  13.929
REMARK UNBOUND:                13.675
REMARK  19 active torsions:
REMARK  status: ('A' for Active; 'I' for Inactive)
REMARK    1  A    between atoms: C_13  and  O_1 
REMARK    2  A    between atoms: O_1  and  C_17 
REMARK    3  A    between atoms: C_14  and  O_2 
REMARK    4  A    between atoms: O_2  and  C_18 
REMARK    5  A    between atoms: O_3  and  C_15 
REMARK    6  A    between atoms: O_4  and  C_16 
REMARK    7  A    between atoms: O_9  and  C_29 
REMARK    8  A    between atoms: O_10  and  C_30 
REMARK    9  A    between atoms: O_11  and  C_33 
REMARK   10  A    between atoms: O_12  and  C_34 
REMARK   11  A    between atoms: C_13  and  C_14 
REMARK   12  A    between atoms: C_13  and  C_15 
REMARK   13  A    between atoms: C_14  and  C_16 
REMARK   14  A    between atoms: C_17  and  C_21 
REMARK   15  A    between atoms: C_18  and  C_22 
REMARK   16  A    between atoms: C_19  and  C_23 
REMARK   17  A    between atoms: C_20  and  C_24 
REMARK   18  A    between atoms: C_21  and  C_23 
REMARK   19  A    between atoms: C_22  and  C_24 
ROOT
ATOM      1  C   UNL d   1     -43.711  16.105   2.253  0.00  0.00     0.269 C 
ENDROOT
BRANCH   1   2
ATOM      2  O   UNL d   1     -44.208  15.240   2.188  0.00  0.00    -0.299 OA
BRANCH   2   3
ATOM      3  C   UNL d   1     -44.173  14.705   1.344  0.00  0.00     0.283 C 
ATOM      4  O   UNL d   1     -44.401  15.135   0.470  0.00  0.00    -0.260 OA
BRANCH   3   5
ATOM      5  C   UNL d   1     -43.911  13.741   1.373  0.00  0.00     0.083 C 
BRANCH   5   6
ATOM      6  C   UNL d   1     -43.692  13.256   0.527  0.00  0.00     0.017 C 
BRANCH   6   7
ATOM      7  C   UNL d   1     -43.255  12.357   0.563  0.00  0.00    -0.033 A 
ATOM      8  C   UNL d   1     -42.290  12.280   0.812  0.00  0.00     0.050 A 
ATOM      9  C   UNL d   1     -41.853  11.381   0.849  0.00  0.00     0.099 A 
ATOM     10  C   UNL d   1     -42.382  10.559   0.637  0.00  0.00     0.098 A 
ATOM     11  C   UNL d   1     -43.348  10.636   0.388  0.00  0.00     0.040 A 
ATOM     12  C   UNL d   1     -43.784  11.535   0.352  0.00  0.00     0.014 A 
BRANCH   9  13
ATOM     13  O   UNL d   1     -40.888  11.304   1.097  0.00  0.00    -0.358 OA
ATOM     14  H   UNL d   1     -40.566  10.799   0.937  0.00  0.00     0.217 HD
ENDBRANCH   9  13
BRANCH  10  15
ATOM     15  O   UNL d   1     -41.945   9.661   0.674  0.00  0.00    -0.358 OA
ATOM     16  H   UNL d   1     -42.276   9.150   0.554  0.00  0.00     0.217 HD
ENDBRANCH  10  15
ENDBRANCH   6   7
ENDBRANCH   5   6
ENDBRANCH   3   5
ENDBRANCH   2   3
ENDBRANCH   1   2
BRANCH   1  17
ATOM     17  C   UNL d   1     -43.006  16.225   2.952  0.00  0.00     0.269 C 
BRANCH  17  18
ATOM     18  O   UNL d   1     -42.039  16.199   2.696  0.00  0.00    -0.299 OA
BRANCH  18  19
ATOM     19  C   UNL d   1     -41.468  15.428   2.977  0.00  0.00     0.283 C 
ATOM     20  O   UNL d   1     -41.461  15.133   3.932  0.00  0.00    -0.260 OA
BRANCH  19  21
ATOM     21  C   UNL d   1     -40.903  14.953   2.303  0.00  0.00     0.083 C 
BRANCH  21  22
ATOM     22  C   UNL d   1     -40.254  15.467   1.742  0.00  0.00     0.017 C 
BRANCH  22  23
ATOM     23  C   UNL d   1     -39.884  15.061   0.906  0.00  0.00    -0.033 A 
ATOM     24  C   UNL d   1     -39.145  14.389   0.961  0.00  0.00     0.050 A 
ATOM     25  C   UNL d   1     -38.776  13.983   0.125  0.00  0.00     0.099 A 
ATOM     26  C   UNL d   1     -39.145  14.250  -0.766  0.00  0.00     0.098 A 
ATOM     27  C   UNL d   1     -39.883  14.922  -0.820  0.00  0.00     0.040 A 
ATOM     28  C   UNL d   1     -40.253  15.327   0.016  0.00  0.00     0.014 A 
BRANCH  25  29
ATOM     29  O   UNL d   1     -38.037  13.312   0.179  0.00  0.00    -0.358 OA
ATOM     30  H   UNL d   1     -38.133  12.729  -0.012  0.00  0.00     0.217 HD
ENDBRANCH  25  29
BRANCH  26  31
ATOM     31  O   UNL d   1     -38.775  13.844  -1.602  0.00  0.00    -0.358 OA
ATOM     32  H   UNL d   1     -39.058  13.942  -2.145  0.00  0.00     0.217 HD
ENDBRANCH  26  31
ENDBRANCH  22  23
ENDBRANCH  21  22
ENDBRANCH  19  21
ENDBRANCH  18  19
ENDBRANCH  17  18
BRANCH  17  33
ATOM     33  C   UNL d   1     -43.267  16.371   3.906  0.00  0.00     0.173 C 
ATOM     34  O   UNL d   1     -42.810  17.077   4.447  0.00  0.00    -0.648 OA
BRANCH  33  35
ATOM     35  O   UNL d   1     -43.984  15.810   4.319  0.00  0.00    -0.774 OA
ATOM     36  H   UNL d   1     -44.564  15.839   4.101  0.00  0.00     0.167 HD
ENDBRANCH  33  35
ENDBRANCH  17  33
ENDBRANCH   1  17
BRANCH   1  37
ATOM     37  C   UNL d   1     -43.919  16.850   1.619  0.00  0.00     0.173 C 
ATOM     38  O   UNL d   1     -44.736  17.410   1.757  0.00  0.00    -0.648 OA
BRANCH  37  39
ATOM     39  O   UNL d   1     -43.310  17.035   0.848  0.00  0.00    -0.774 OA
ATOM     40  H   UNL d   1     -42.941  16.587   0.630  0.00  0.00     0.167 HD
ENDBRANCH  37  39
ENDBRANCH   1  37
TORSDOF 19
ENDMDL
MODEL 5
REMARK VINA RESULT:    -7.023      1.617      5.178
REMARK INTER + INTRA:           0.083
REMARK INTER:                 -14.134
REMARK INTRA:                  14.217
REMARK UNBOUND:                13.675
REMARK  19 active torsions:
REMARK  status: ('A' for Active; 'I' for Inactive)
REMARK    1  A    between atoms: C_13  and  O_1 
REMARK    2  A    between atoms: O_1  and  C_17 
REMARK    3  A    between atoms: C_14  and  O_2 
REMARK    4  A    between atoms: O_2  and  C_18 
REMARK    5  A    between atoms: O_3  and  C_15 
REMARK    6  A    between atoms: O_4  and  C_16 
REMARK    7  A    between atoms: O_9  and  C_29 
REMARK    8  A    between atoms: O_10  and  C_30 
REMARK    9  A    between atoms: O_11  and  C_33 
REMARK   10  A    between atoms: O_12  and  C_34 
REMARK   11  A    between atoms: C_13  and  C_14 
REMARK   12  A    between atoms: C_13  and  C_15 
REMARK   13  A    between atoms: C_14  and  C_16 
REMARK   14  A    between atoms: C_17  and  C_21 
REMARK   15  A    between atoms: C_18  and  C_22 
REMARK   16  A    between atoms: C_19  and  C_23 
REMARK   17  A    between atoms: C_20  and  C_24 
REMARK   18  A    between atoms: C_21  and  C_23 
REMARK   19  A    between atoms: C_22  and  C_24 
ROOT
ATOM      1  C   UNL d   1     -42.962  16.207   2.977  0.00  0.00     0.269 C 
ENDROOT
BRANCH   1   2
ATOM      2  O   UNL d   1     -41.999  16.129   2.719  0.00  0.00    -0.299 OA
BRANCH   2   3
ATOM      3  C   UNL d   1     -41.465  15.338   3.015  0.00  0.00     0.283 C 
ATOM      4  O   UNL d   1     -41.577  14.977   3.940  0.00  0.00    -0.260 OA
BRANCH   3   5
ATOM      5  C   UNL d   1     -40.818  14.907   2.385  0.00  0.00     0.083 C 
BRANCH   5   6
ATOM      6  C   UNL d   1     -40.305  15.468   1.735  0.00  0.00     0.017 C 
BRANCH   6   7
ATOM      7  C   UNL d   1     -39.909  15.049   0.918  0.00  0.00    -0.033 A 
ATOM      8  C   UNL d   1     -39.138  14.417   1.003  0.00  0.00     0.050 A 
ATOM      9  C   UNL d   1     -38.742  13.999   0.185  0.00  0.00     0.099 A 
ATOM     10  C   UNL d   1     -39.117  14.212  -0.717  0.00  0.00     0.098 A 
ATOM     11  C   UNL d   1     -39.887  14.844  -0.802  0.00  0.00     0.040 A 
ATOM     12  C   UNL d   1     -40.283  15.262   0.015  0.00  0.00     0.014 A 
BRANCH   9  13
ATOM     13  O   UNL d   1     -37.972  13.367   0.270  0.00  0.00    -0.358 OA
ATOM     14  H   UNL d   1     -37.791  13.173   0.830  0.00  0.00     0.217 HD
ENDBRANCH   9  13
BRANCH  10  15
ATOM     15  O   UNL d   1     -38.721  13.794  -1.534  0.00  0.00    -0.358 OA
ATOM     16  H   UNL d   1     -39.079  13.462  -1.917  0.00  0.00     0.217 HD
ENDBRANCH  10  15
ENDBRANCH   6   7
ENDBRANCH   5   6
ENDBRANCH   3   5
ENDBRANCH   2   3
ENDBRANCH   1   2
BRANCH   1  17
ATOM     17  C   UNL d   1     -43.676  16.115   2.282  0.00  0.00     0.269 C 
BRANCH  17  18
ATOM     18  O   UNL d   1     -44.214  15.274   2.227  0.00  0.00    -0.299 OA
BRANCH  18  19
ATOM     19  C   UNL d   1     -44.185  14.714   1.399  0.00  0.00     0.283 C 
ATOM     20  O   UNL d   1     -44.533  15.080   0.536  0.00  0.00    -0.260 OA
BRANCH  19  21
ATOM     21  C   UNL d   1     -43.806  13.789   1.434  0.00  0.00     0.083 C 
BRANCH  21  22
ATOM     22  C   UNL d   1     -43.851  13.200   0.628  0.00  0.00     0.017 C 
BRANCH  22  23
ATOM     23  C   UNL d   1     -43.376  12.320   0.625  0.00  0.00    -0.033 A 
ATOM     24  C   UNL d   1     -42.412  12.271   0.888  0.00  0.00     0.050 A 
ATOM     25  C   UNL d   1     -41.937  11.391   0.885  0.00  0.00     0.099 A 
ATOM     26  C   UNL d   1     -42.425  10.560   0.618  0.00  0.00     0.098 A 
ATOM     27  C   UNL d   1     -43.389  10.609   0.354  0.00  0.00     0.040 A 
ATOM     28  C   UNL d   1     -43.864  11.489   0.358  0.00  0.00     0.014 A 
BRANCH  25  29
ATOM     29  O   UNL d   1     -40.974  11.342   1.149  0.00  0.00    -0.358 OA
ATOM     30  H   UNL d   1     -40.629  10.858   0.973  0.00  0.00     0.217 HD
ENDBRANCH  25  29
BRANCH  26  31
ATOM     31  O   UNL d   1     -41.950   9.680   0.615  0.00  0.00    -0.358 OA
ATOM     32  H   UNL d   1     -41.405   9.623   0.324  0.00  0.00     0.217 HD
ENDBRANCH  26  31
ENDBRANCH  22  23
ENDBRANCH  21  22
ENDBRANCH  19  21
ENDBRANCH  18  19
ENDBRANCH  17  18
BRANCH  17  33
ATOM     33  C   UNL d   1     -43.850  16.863   1.643  0.00  0.00     0.173 C 
ATOM     34  O   UNL d   1     -44.622  17.481   1.794  0.00  0.00    -0.648 OA
BRANCH  33  35
ATOM     35  O   UNL d   1     -43.253  16.994   0.851  0.00  0.00    -0.774 OA
ATOM     36  H   UNL d   1     -42.888  16.531   0.659  0.00  0.00     0.167 HD
ENDBRANCH  33  35
ENDBRANCH  17  33
ENDBRANCH   1  17
BRANCH   1  37
ATOM     37  C   UNL d   1     -43.212  16.377   3.930  0.00  0.00     0.173 C 
ATOM     38  O   UNL d   1     -42.696  17.041   4.471  0.00  0.00    -0.648 OA
BRANCH  37  39
ATOM     39  O   UNL d   1     -43.977  15.883   4.343  0.00  0.00    -0.774 OA
ATOM     40  H   UNL d   1     -44.294  15.468   4.008  0.00  0.00     0.167 HD
ENDBRANCH  37  39
ENDBRANCH   1  37
TORSDOF 19
ENDMDL
