MODEL 1
REMARK VINA RESULT:    -8.478      0.000      0.000
REMARK INTER + INTRA:          -8.389
REMARK INTER:                  -9.388
REMARK INTRA:                   0.999
REMARK UNBOUND:                 1.080
REMARK  3 active torsions:
REMARK  status: ('A' for Active; 'I' for Inactive)
REMARK    1  A    between atoms: O_2  and  C_10 
REMARK    2  A    between atoms: O_4  and  C_13 
REMARK    3  A    between atoms: C_7  and  C_9 
ROOT
ATOM      1  O   UNL d   1      -4.672   3.099 -10.032  0.00  0.00    -0.309 OA
ATOM      2  O   UNL d   1      -6.638   3.241  -7.770  0.00  0.00    -0.287 OA
ATOM      3  C   UNL d   1      -5.018   3.405  -8.363  0.00  0.00     0.081 A 
ATOM      4  C   UNL d   1      -4.363   3.357  -9.117  0.00  0.00     0.095 A 
ATOM      5  C   UNL d   1      -5.636   2.888 -10.193  0.00  0.00     0.090 A 
ATOM      6  C   UNL d   1      -5.983   3.194  -8.524  0.00  0.00     0.190 A 
ATOM      7  C   UNL d   1      -4.711   3.672  -7.404  0.00  0.00     0.085 A 
ATOM      8  C   UNL d   1      -6.292   2.936  -9.439  0.00  0.00     0.094 A 
ATOM      9  C   UNL d   1      -3.356   3.574  -8.964  0.00  0.00     0.075 A 
ATOM     10  C   UNL d   1      -3.026   3.843  -8.014  0.00  0.00     0.071 A 
ATOM     11  C   UNL d   1      -3.708   3.893  -7.229  0.00  0.00     0.074 A 
ENDROOT
BRANCH   5  12
ATOM     12  C   UNL d   1      -5.945   2.630 -11.109  0.00  0.00    -0.002 A 
ATOM     13  C   UNL d   1      -5.927   1.671 -11.391  0.00  0.00     0.014 A 
ATOM     14  C   UNL d   1      -6.236   1.413 -12.306  0.00  0.00     0.001 A 
ATOM     15  C   UNL d   1      -6.563   2.114 -12.940  0.00  0.00     0.000 A 
ATOM     16  C   UNL d   1      -6.582   3.074 -12.658  0.00  0.00     0.001 A 
ATOM     17  C   UNL d   1      -6.273   3.332 -11.742  0.00  0.00     0.014 A 
ENDBRANCH   5  12
BRANCH   7  18
ATOM     18  O   UNL d   1      -5.375   3.716  -6.658  0.00  0.00    -0.360 OA
ATOM     19  H   UNL d   1      -5.791   3.262  -6.586  0.00  0.00     0.217 HD
ENDBRANCH   7  18
BRANCH  10  20
ATOM     20  O   UNL d   1      -2.061   4.053  -7.857  0.00  0.00    -0.361 OA
ATOM     21  H   UNL d   1      -1.668   4.078  -8.335  0.00  0.00     0.217 HD
ENDBRANCH  10  20
TORSDOF 3
ENDMDL
MODEL 2
REMARK VINA RESULT:    -8.336      1.776      4.810
REMARK INTER + INTRA:          -8.230
REMARK INTER:                  -9.261
REMARK INTRA:                   1.031
REMARK UNBOUND:                 1.080
REMARK  3 active torsions:
REMARK  status: ('A' for Active; 'I' for Inactive)
REMARK    1  A    between atoms: O_2  and  C_10 
REMARK    2  A    between atoms: O_4  and  C_13 
REMARK    3  A    between atoms: C_7  and  C_9 
ROOT
ATOM      1  O   UNL d   1      -5.387   1.946 -10.453  0.00  0.00    -0.309 OA
ATOM      2  O   UNL d   1      -6.224   4.419 -11.931  0.00  0.00    -0.287 OA
ATOM      3  C   UNL d   1      -6.140   2.692 -11.822  0.00  0.00     0.081 A 
ATOM      4  C   UNL d   1      -5.860   1.868 -11.330  0.00  0.00     0.095 A 
ATOM      5  C   UNL d   1      -5.192   2.849 -10.068  0.00  0.00     0.090 A 
ATOM      6  C   UNL d   1      -5.945   3.595 -11.438  0.00  0.00     0.190 A 
ATOM      7  C   UNL d   1      -6.633   2.626 -12.737  0.00  0.00     0.085 A 
ATOM      8  C   UNL d   1      -5.471   3.673 -10.561  0.00  0.00     0.094 A 
ATOM      9  C   UNL d   1      -6.056   0.921 -11.717  0.00  0.00     0.075 A 
ATOM     10  C   UNL d   1      -6.549   0.832 -12.631  0.00  0.00     0.071 A 
ATOM     11  C   UNL d   1      -6.840   1.690 -13.144  0.00  0.00     0.074 A 
ENDROOT
BRANCH   5  12
ATOM     12  C   UNL d   1      -4.719   2.927  -9.191  0.00  0.00    -0.002 A 
ATOM     13  C   UNL d   1      -5.200   2.710  -8.342  0.00  0.00     0.014 A 
ATOM     14  C   UNL d   1      -4.726   2.788  -7.464  0.00  0.00     0.001 A 
ATOM     15  C   UNL d   1      -3.771   3.083  -7.436  0.00  0.00     0.000 A 
ATOM     16  C   UNL d   1      -3.290   3.300  -8.286  0.00  0.00     0.001 A 
ATOM     17  C   UNL d   1      -3.764   3.222  -9.163  0.00  0.00     0.014 A 
ENDBRANCH   5  12
BRANCH   7  18
ATOM     18  O   UNL d   1      -6.908   3.457 -13.221  0.00  0.00    -0.360 OA
ATOM     19  H   UNL d   1      -7.501   3.542 -13.379  0.00  0.00     0.217 HD
ENDBRANCH   7  18
BRANCH  10  20
ATOM     20  O   UNL d   1      -6.742  -0.073 -13.012  0.00  0.00    -0.361 OA
ATOM     21  H   UNL d   1      -6.989  -0.124 -13.578  0.00  0.00     0.217 HD
ENDBRANCH  10  20
TORSDOF 3
ENDMDL
MODEL 3
REMARK VINA RESULT:    -8.213     31.809     33.533
REMARK INTER + INTRA:          -8.093
REMARK INTER:                  -9.093
REMARK INTRA:                   0.999
REMARK UNBOUND:                 1.080
REMARK  3 active torsions:
REMARK  status: ('A' for Active; 'I' for Inactive)
REMARK    1  A    between atoms: O_2  and  C_10 
REMARK    2  A    between atoms: O_4  and  C_13 
REMARK    3  A    between atoms: C_7  and  C_9 
ROOT
ATOM      1  O   UNL d   1       4.670 -27.031 -19.951  0.00  0.00    -0.309 OA
ATOM      2  O   UNL d   1       2.814 -26.465 -22.238  0.00  0.00    -0.287 OA
ATOM      3  C   UNL d   1       3.376 -26.109 -20.639  0.00  0.00     0.081 A 
ATOM      4  C   UNL d   1       3.994 -26.298 -19.876  0.00  0.00     0.095 A 
ATOM      5  C   UNL d   1       4.727 -27.576 -20.787  0.00  0.00     0.090 A 
ATOM      6  C   UNL d   1       3.433 -26.654 -21.476  0.00  0.00     0.190 A 
ATOM      7  C   UNL d   1       2.667 -25.349 -20.576  0.00  0.00     0.085 A 
ATOM      8  C   UNL d   1       4.109 -27.387 -21.550  0.00  0.00     0.094 A 
ATOM      9  C   UNL d   1       3.947 -25.740 -18.998  0.00  0.00     0.075 A 
ATOM     10  C   UNL d   1       3.246 -24.974 -18.913  0.00  0.00     0.071 A 
ATOM     11  C   UNL d   1       2.602 -24.778 -19.707  0.00  0.00     0.074 A 
ENDROOT
BRANCH   5  12
ATOM     12  C   UNL d   1       5.403 -28.309 -20.862  0.00  0.00    -0.002 A 
ATOM     13  C   UNL d   1       6.325 -28.108 -21.193  0.00  0.00     0.014 A 
ATOM     14  C   UNL d   1       7.001 -28.841 -21.268  0.00  0.00     0.001 A 
ATOM     15  C   UNL d   1       6.755 -29.775 -21.010  0.00  0.00     0.000 A 
ATOM     16  C   UNL d   1       5.833 -29.977 -20.678  0.00  0.00     0.001 A 
ATOM     17  C   UNL d   1       5.158 -29.243 -20.604  0.00  0.00     0.014 A 
ENDBRANCH   5  12
BRANCH   7  18
ATOM     18  O   UNL d   1       2.053 -25.169 -21.345  0.00  0.00    -0.360 OA
ATOM     19  H   UNL d   1       2.192 -25.386 -21.908  0.00  0.00     0.217 HD
ENDBRANCH   7  18
BRANCH  10  20
ATOM     20  O   UNL d   1       3.192 -24.432 -18.075  0.00  0.00    -0.361 OA
ATOM     21  H   UNL d   1       3.338 -24.689 -17.530  0.00  0.00     0.217 HD
ENDBRANCH  10  20
TORSDOF 3
ENDMDL
MODEL 4
REMARK VINA RESULT:    -7.945     19.985     21.198
REMARK INTER + INTRA:          -7.794
REMARK INTER:                  -8.882
REMARK INTRA:                   1.088
REMARK UNBOUND:                 1.080
REMARK  3 active torsions:
REMARK  status: ('A' for Active; 'I' for Inactive)
REMARK    1  A    between atoms: O_2  and  C_10 
REMARK    2  A    between atoms: O_4  and  C_13 
REMARK    3  A    between atoms: C_7  and  C_9 
ROOT
ATOM      1  O   UNL d   1      -6.179 -17.940  -7.288  0.00  0.00    -0.309 OA
ATOM      2  O   UNL d   1      -8.094 -15.771  -6.496  0.00  0.00    -0.287 OA
ATOM      3  C   UNL d   1      -7.324 -16.717  -7.726  0.00  0.00     0.081 A 
ATOM      4  C   UNL d   1      -6.686 -17.440  -7.990  0.00  0.00     0.095 A 
ATOM      5  C   UNL d   1      -6.311 -17.718  -6.322  0.00  0.00     0.090 A 
ATOM      6  C   UNL d   1      -7.456 -16.494  -6.760  0.00  0.00     0.190 A 
ATOM      7  C   UNL d   1      -7.858 -16.187  -8.446  0.00  0.00     0.085 A 
ATOM      8  C   UNL d   1      -6.949 -16.995  -6.058  0.00  0.00     0.094 A 
ATOM      9  C   UNL d   1      -6.537 -17.683  -8.992  0.00  0.00     0.075 A 
ATOM     10  C   UNL d   1      -7.061 -17.165  -9.729  0.00  0.00     0.071 A 
ATOM     11  C   UNL d   1      -7.726 -16.413  -9.454  0.00  0.00     0.074 A 
ENDROOT
BRANCH   5  12
ATOM     12  C   UNL d   1      -5.805 -18.219  -5.620  0.00  0.00    -0.002 A 
ATOM     13  C   UNL d   1      -4.806 -18.180  -5.601  0.00  0.00     0.014 A 
ATOM     14  C   UNL d   1      -4.299 -18.681  -4.899  0.00  0.00     0.001 A 
ATOM     15  C   UNL d   1      -4.792 -19.220  -4.216  0.00  0.00     0.000 A 
ATOM     16  C   UNL d   1      -5.791 -19.259  -4.235  0.00  0.00     0.001 A 
ATOM     17  C   UNL d   1      -6.297 -18.758  -4.937  0.00  0.00     0.014 A 
ENDBRANCH   5  12
BRANCH   7  18
ATOM     18  O   UNL d   1      -8.494 -15.466  -8.170  0.00  0.00    -0.360 OA
ATOM     19  H   UNL d   1      -8.396 -15.150  -7.646  0.00  0.00     0.217 HD
ENDBRANCH   7  18
BRANCH  10  20
ATOM     20  O   UNL d   1      -6.927 -17.391 -10.694  0.00  0.00    -0.361 OA
ATOM     21  H   UNL d   1      -6.386 -17.627 -10.884  0.00  0.00     0.217 HD
ENDBRANCH  10  20
TORSDOF 3
ENDMDL
MODEL 5
REMARK VINA RESULT:    -7.927      0.927      2.061
REMARK INTER + INTRA:          -7.774
REMARK INTER:                  -8.776
REMARK INTRA:                   1.002
REMARK UNBOUND:                 1.080
REMARK  3 active torsions:
REMARK  status: ('A' for Active; 'I' for Inactive)
REMARK    1  A    between atoms: O_2  and  C_10 
REMARK    2  A    between atoms: O_4  and  C_13 
REMARK    3  A    between atoms: C_7  and  C_9 
ROOT
ATOM      1  O   UNL d   1      -6.150   2.905  -9.343  0.00  0.00    -0.309 OA
ATOM      2  O   UNL d   1      -3.202   3.303  -8.953  0.00  0.00    -0.287 OA
ATOM      3  C   UNL d   1      -4.807   3.250  -8.305  0.00  0.00     0.081 A 
ATOM      4  C   UNL d   1      -5.790   3.118  -8.435  0.00  0.00     0.095 A 
ATOM      5  C   UNL d   1      -5.527   2.826 -10.122  0.00  0.00     0.090 A 
ATOM      6  C   UNL d   1      -4.185   3.170  -9.083  0.00  0.00     0.190 A 
ATOM      7  C   UNL d   1      -4.418   3.472  -7.365  0.00  0.00     0.085 A 
ATOM      8  C   UNL d   1      -4.545   2.958  -9.992  0.00  0.00     0.094 A 
ATOM      9  C   UNL d   1      -6.451   3.197  -7.634  0.00  0.00     0.075 A 
ATOM     10  C   UNL d   1      -6.083   3.418  -6.684  0.00  0.00     0.071 A 
ATOM     11  C   UNL d   1      -5.060   3.556  -6.549  0.00  0.00     0.074 A 
ENDROOT
BRANCH   5  12
ATOM     12  C   UNL d   1      -5.887   2.614 -11.030  0.00  0.00    -0.002 A 
ATOM     13  C   UNL d   1      -5.895   1.668 -11.357  0.00  0.00     0.014 A 
ATOM     14  C   UNL d   1      -6.255   1.456 -12.265  0.00  0.00     0.001 A 
ATOM     15  C   UNL d   1      -6.607   2.189 -12.847  0.00  0.00     0.000 A 
ATOM     16  C   UNL d   1      -6.600   3.134 -12.521  0.00  0.00     0.001 A 
ATOM     17  C   UNL d   1      -6.240   3.347 -11.612  0.00  0.00     0.014 A 
ENDBRANCH   5  12
BRANCH   7  18
ATOM     18  O   UNL d   1      -3.434   3.602  -7.246  0.00  0.00    -0.360 OA
ATOM     19  H   UNL d   1      -3.211   3.810  -6.707  0.00  0.00     0.217 HD
ENDBRANCH   7  18
BRANCH  10  20
ATOM     20  O   UNL d   1      -6.709   3.497  -5.908  0.00  0.00    -0.361 OA
ATOM     21  H   UNL d   1      -6.585   3.200  -5.379  0.00  0.00     0.217 HD
ENDBRANCH  10  20
TORSDOF 3
ENDMDL
