MODEL 1
REMARK VINA RESULT:    -8.326      0.000      0.000
REMARK INTER + INTRA:          -8.165
REMARK INTER:                 -10.031
REMARK INTRA:                   1.866
REMARK UNBOUND:                 1.865
REMARK  5 active torsions:
REMARK  status: ('A' for Active; 'I' for Inactive)
REMARK    1  A    between atoms: O_2  and  C_13 
REMARK    2  A    between atoms: O_3  and  C_19 
REMARK    3  A    between atoms: O_5  and  C_17 
REMARK    4  A    between atoms: O_6  and  C_21 
REMARK    5  A    between atoms: C_8  and  C_10 
ROOT
ATOM      1  O   UNL d   1      -5.343   1.990 -10.459  0.00  0.00    -0.309 OA
ATOM      2  O   UNL d   1      -6.247   4.462 -11.899  0.00  0.00    -0.287 OA
ATOM      3  C   UNL d   1      -6.136   2.736 -11.807  0.00  0.00     0.081 A 
ATOM      4  C   UNL d   1      -5.153   2.892 -10.072  0.00  0.00     0.090 A 
ATOM      5  C   UNL d   1      -5.834   1.912 -11.326  0.00  0.00     0.095 A 
ATOM      6  C   UNL d   1      -5.945   3.638 -11.419  0.00  0.00     0.190 A 
ATOM      7  C   UNL d   1      -5.454   3.716 -10.552  0.00  0.00     0.094 A 
ATOM      8  C   UNL d   1      -6.648   2.670 -12.711  0.00  0.00     0.085 A 
ATOM      9  C   UNL d   1      -6.025   0.965 -11.717  0.00  0.00     0.075 A 
ATOM     10  C   UNL d   1      -6.536   0.876 -12.621  0.00  0.00     0.071 A 
ATOM     11  C   UNL d   1      -6.850   1.734 -13.120  0.00  0.00     0.074 A 
ENDROOT
BRANCH   4  12
ATOM     12  C   UNL d   1      -4.662   2.970  -9.204  0.00  0.00     0.001 A 
ATOM     13  C   UNL d   1      -5.142   2.813  -8.341  0.00  0.00     0.054 A 
ATOM     14  C   UNL d   1      -4.651   2.891  -7.474  0.00  0.00     0.102 A 
ATOM     15  C   UNL d   1      -3.679   3.127  -7.469  0.00  0.00     0.099 A 
ATOM     16  C   UNL d   1      -3.199   3.285  -8.332  0.00  0.00     0.040 A 
ATOM     17  C   UNL d   1      -3.690   3.206  -9.199  0.00  0.00     0.017 A 
BRANCH  14  18
ATOM     18  O   UNL d   1      -5.131   2.733  -6.611  0.00  0.00    -0.353 OA
ATOM     19  C   UNL d   1      -6.116   2.897  -6.550  0.00  0.00     0.210 C 
ENDBRANCH  14  18
BRANCH  15  20
ATOM     20  O   UNL d   1      -3.188   3.205  -6.602  0.00  0.00    -0.358 OA
ATOM     21  H   UNL d   1      -3.203   3.737  -6.284  0.00  0.00     0.217 HD
ENDBRANCH  15  20
ENDBRANCH   4  12
BRANCH   8  22
ATOM     22  O   UNL d   1      -6.944   3.501 -13.182  0.00  0.00    -0.360 OA
ATOM     23  H   UNL d   1      -7.308   3.909 -12.890  0.00  0.00     0.217 HD
ENDBRANCH   8  22
BRANCH  10  24
ATOM     24  O   UNL d   1      -6.724  -0.028 -13.005  0.00  0.00    -0.361 OA
ATOM     25  H   UNL d   1      -6.670  -0.533 -12.649  0.00  0.00     0.217 HD
ENDBRANCH  10  24
TORSDOF 5
ENDMDL
MODEL 2
REMARK VINA RESULT:    -8.228      1.112      5.202
REMARK INTER + INTRA:          -8.046
REMARK INTER:                 -10.448
REMARK INTRA:                   2.402
REMARK UNBOUND:                 1.865
REMARK  5 active torsions:
REMARK  status: ('A' for Active; 'I' for Inactive)
REMARK    1  A    between atoms: O_2  and  C_13 
REMARK    2  A    between atoms: O_3  and  C_19 
REMARK    3  A    between atoms: O_5  and  C_17 
REMARK    4  A    between atoms: O_6  and  C_21 
REMARK    5  A    between atoms: C_8  and  C_10 
ROOT
ATOM      1  O   UNL d   1      -4.655   3.213 -10.050  0.00  0.00    -0.309 OA
ATOM      2  O   UNL d   1      -6.617   3.209  -7.781  0.00  0.00    -0.287 OA
ATOM      3  C   UNL d   1      -5.001   3.425  -8.367  0.00  0.00     0.081 A 
ATOM      4  C   UNL d   1      -5.616   2.999 -10.221  0.00  0.00     0.090 A 
ATOM      5  C   UNL d   1      -4.347   3.426  -9.123  0.00  0.00     0.095 A 
ATOM      6  C   UNL d   1      -5.963   3.211  -8.538  0.00  0.00     0.190 A 
ATOM      7  C   UNL d   1      -6.271   2.998  -9.465  0.00  0.00     0.094 A 
ATOM      8  C   UNL d   1      -4.696   3.644  -7.396  0.00  0.00     0.085 A 
ATOM      9  C   UNL d   1      -3.342   3.647  -8.961  0.00  0.00     0.075 A 
ATOM     10  C   UNL d   1      -3.014   3.870  -7.997  0.00  0.00     0.071 A 
ATOM     11  C   UNL d   1      -3.695   3.868  -7.210  0.00  0.00     0.074 A 
ENDROOT
BRANCH   4  12
ATOM     12  C   UNL d   1      -5.924   2.786 -11.149  0.00  0.00     0.001 A 
ATOM     13  C   UNL d   1      -5.936   1.838 -11.467  0.00  0.00     0.054 A 
ATOM     14  C   UNL d   1      -6.243   1.626 -12.394  0.00  0.00     0.102 A 
ATOM     15  C   UNL d   1      -6.539   2.361 -13.004  0.00  0.00     0.099 A 
ATOM     16  C   UNL d   1      -6.527   3.309 -12.686  0.00  0.00     0.040 A 
ATOM     17  C   UNL d   1      -6.220   3.522 -11.758  0.00  0.00     0.017 A 
BRANCH  14  18
ATOM     18  O   UNL d   1      -6.255   0.678 -12.712  0.00  0.00    -0.353 OA
ATOM     19  C   UNL d   1      -7.033   0.088 -12.497  0.00  0.00     0.210 C 
ENDBRANCH  14  18
BRANCH  15  20
ATOM     20  O   UNL d   1      -6.847   2.148 -13.931  0.00  0.00    -0.358 OA
ATOM     21  H   UNL d   1      -6.437   1.967 -14.360  0.00  0.00     0.217 HD
ENDBRANCH  15  20
ENDBRANCH   4  12
BRANCH   8  22
ATOM     22  O   UNL d   1      -5.358   3.640  -6.647  0.00  0.00    -0.360 OA
ATOM     23  H   UNL d   1      -5.214   3.902  -6.104  0.00  0.00     0.217 HD
ENDBRANCH   8  22
BRANCH  10  24
ATOM     24  O   UNL d   1      -2.052   4.083  -7.830  0.00  0.00    -0.361 OA
ATOM     25  H   UNL d   1      -1.713   3.718  -7.462  0.00  0.00     0.217 HD
ENDBRANCH  10  24
TORSDOF 5
ENDMDL
MODEL 3
REMARK VINA RESULT:    -8.107     31.388     33.638
REMARK INTER + INTRA:          -7.901
REMARK INTER:                  -9.726
REMARK INTRA:                   1.824
REMARK UNBOUND:                 1.865
REMARK  5 active torsions:
REMARK  status: ('A' for Active; 'I' for Inactive)
REMARK    1  A    between atoms: O_2  and  C_13 
REMARK    2  A    between atoms: O_3  and  C_19 
REMARK    3  A    between atoms: O_5  and  C_17 
REMARK    4  A    between atoms: O_6  and  C_21 
REMARK    5  A    between atoms: C_8  and  C_10 
ROOT
ATOM      1  O   UNL d   1       4.763 -27.028 -20.003  0.00  0.00    -0.309 OA
ATOM      2  O   UNL d   1       2.845 -26.552 -22.260  0.00  0.00    -0.287 OA
ATOM      3  C   UNL d   1       3.421 -26.163 -20.674  0.00  0.00     0.081 A 
ATOM      4  C   UNL d   1       4.827 -27.576 -20.837  0.00  0.00     0.090 A 
ATOM      5  C   UNL d   1       4.060 -26.322 -19.921  0.00  0.00     0.095 A 
ATOM      6  C   UNL d   1       3.485 -26.711 -21.508  0.00  0.00     0.190 A 
ATOM      7  C   UNL d   1       4.188 -27.417 -21.590  0.00  0.00     0.094 A 
ATOM      8  C   UNL d   1       2.684 -25.431 -20.602  0.00  0.00     0.085 A 
ATOM      9  C   UNL d   1       4.006 -25.760 -19.046  0.00  0.00     0.075 A 
ATOM     10  C   UNL d   1       3.277 -25.022 -18.953  0.00  0.00     0.071 A 
ATOM     11  C   UNL d   1       2.611 -24.857 -19.736  0.00  0.00     0.074 A 
ENDROOT
BRANCH   4  12
ATOM     12  C   UNL d   1       5.530 -28.282 -20.919  0.00  0.00     0.001 A 
ATOM     13  C   UNL d   1       5.318 -29.230 -20.680  0.00  0.00     0.054 A 
ATOM     14  C   UNL d   1       6.021 -29.936 -20.761  0.00  0.00     0.102 A 
ATOM     15  C   UNL d   1       6.936 -29.695 -21.083  0.00  0.00     0.099 A 
ATOM     16  C   UNL d   1       7.149 -28.748 -21.323  0.00  0.00     0.040 A 
ATOM     17  C   UNL d   1       6.446 -28.041 -21.241  0.00  0.00     0.017 A 
BRANCH  14  18
ATOM     18  O   UNL d   1       5.808 -30.883 -20.522  0.00  0.00    -0.353 OA
ATOM     19  C   UNL d   1       4.946 -31.102 -20.065  0.00  0.00     0.210 C 
ENDBRANCH  14  18
BRANCH  15  20
ATOM     20  O   UNL d   1       7.639 -30.401 -21.165  0.00  0.00    -0.358 OA
ATOM     21  H   UNL d   1       8.092 -30.439 -20.743  0.00  0.00     0.217 HD
ENDBRANCH  15  20
ENDBRANCH   4  12
BRANCH   8  22
ATOM     22  O   UNL d   1       2.050 -25.281 -21.361  0.00  0.00    -0.360 OA
ATOM     23  H   UNL d   1       1.583 -24.878 -21.300  0.00  0.00     0.217 HD
ENDBRANCH   8  22
BRANCH  10  24
ATOM     24  O   UNL d   1       3.216 -24.477 -18.117  0.00  0.00    -0.361 OA
ATOM     25  H   UNL d   1       2.821 -24.640 -17.669  0.00  0.00     0.217 HD
ENDBRANCH  10  24
TORSDOF 5
ENDMDL
MODEL 4
REMARK VINA RESULT:    -7.890      1.967      2.648
REMARK INTER + INTRA:          -7.640
REMARK INTER:                  -9.519
REMARK INTRA:                   1.879
REMARK UNBOUND:                 1.865
REMARK  5 active torsions:
REMARK  status: ('A' for Active; 'I' for Inactive)
REMARK    1  A    between atoms: O_2  and  C_13 
REMARK    2  A    between atoms: O_3  and  C_19 
REMARK    3  A    between atoms: O_5  and  C_17 
REMARK    4  A    between atoms: O_6  and  C_21 
REMARK    5  A    between atoms: C_8  and  C_10 
ROOT
ATOM      1  O   UNL d   1      -6.129   4.106 -10.507  0.00  0.00    -0.309 OA
ATOM      2  O   UNL d   1      -5.328   1.267  -9.961  0.00  0.00    -0.287 OA
ATOM      3  C   UNL d   1      -5.866   2.487 -11.066  0.00  0.00     0.081 A 
ATOM      4  C   UNL d   1      -5.857   3.831  -9.585  0.00  0.00     0.090 A 
ATOM      5  C   UNL d   1      -6.133   3.434 -11.248  0.00  0.00     0.095 A 
ATOM      6  C   UNL d   1      -5.595   2.213 -10.143  0.00  0.00     0.190 A 
ATOM      7  C   UNL d   1      -5.590   2.885  -9.403  0.00  0.00     0.094 A 
ATOM      8  C   UNL d   1      -5.866   1.777 -11.827  0.00  0.00     0.085 A 
ATOM      9  C   UNL d   1      -6.419   3.735 -12.203  0.00  0.00     0.075 A 
ATOM     10  C   UNL d   1      -6.426   3.040 -12.980  0.00  0.00     0.071 A 
ATOM     11  C   UNL d   1      -6.148   2.055 -12.790  0.00  0.00     0.074 A 
ENDROOT
BRANCH   4  12
ATOM     12  C   UNL d   1      -5.853   4.504  -8.844  0.00  0.00     0.001 A 
ATOM     13  C   UNL d   1      -6.604   4.526  -8.184  0.00  0.00     0.054 A 
ATOM     14  C   UNL d   1      -6.599   5.198  -7.444  0.00  0.00     0.102 A 
ATOM     15  C   UNL d   1      -5.844   5.848  -7.363  0.00  0.00     0.099 A 
ATOM     16  C   UNL d   1      -5.092   5.825  -8.023  0.00  0.00     0.040 A 
ATOM     17  C   UNL d   1      -5.097   5.153  -8.763  0.00  0.00     0.017 A 
BRANCH  14  18
ATOM     18  O   UNL d   1      -7.350   5.220  -6.784  0.00  0.00    -0.353 OA
ATOM     19  C   UNL d   1      -8.277   4.979  -7.073  0.00  0.00     0.210 C 
ENDBRANCH  14  18
BRANCH  15  20
ATOM     20  O   UNL d   1      -5.839   6.520  -6.623  0.00  0.00    -0.358 OA
ATOM     21  H   UNL d   1      -6.374   6.723  -6.386  0.00  0.00     0.217 HD
ENDBRANCH  15  20
ENDBRANCH   4  12
BRANCH   8  22
ATOM     22  O   UNL d   1      -5.597   0.833 -11.633  0.00  0.00    -0.360 OA
ATOM     23  H   UNL d   1      -5.766   0.566 -11.100  0.00  0.00     0.217 HD
ENDBRANCH   8  22
BRANCH  10  24
ATOM     24  O   UNL d   1      -6.698   3.319 -13.901  0.00  0.00    -0.361 OA
ATOM     25  H   UNL d   1      -7.095   2.970 -14.225  0.00  0.00     0.217 HD
ENDBRANCH  10  24
TORSDOF 5
ENDMDL
MODEL 5
REMARK VINA RESULT:    -7.658     19.558     21.445
REMARK INTER + INTRA:          -7.360
REMARK INTER:                  -9.254
REMARK INTRA:                   1.894
REMARK UNBOUND:                 1.865
REMARK  5 active torsions:
REMARK  status: ('A' for Active; 'I' for Inactive)
REMARK    1  A    between atoms: O_2  and  C_13 
REMARK    2  A    between atoms: O_3  and  C_19 
REMARK    3  A    between atoms: O_5  and  C_17 
REMARK    4  A    between atoms: O_6  and  C_21 
REMARK    5  A    between atoms: C_8  and  C_10 
ROOT
ATOM      1  O   UNL d   1      -5.515 -17.814  -6.455  0.00  0.00    -0.309 OA
ATOM      2  O   UNL d   1      -7.746 -18.256  -4.499  0.00  0.00    -0.287 OA
ATOM      3  C   UNL d   1      -6.060 -18.317  -4.890  0.00  0.00     0.081 A 
ATOM      4  C   UNL d   1      -6.457 -17.606  -6.716  0.00  0.00     0.090 A 
ATOM      5  C   UNL d   1      -5.316 -18.170  -5.542  0.00  0.00     0.095 A 
ATOM      6  C   UNL d   1      -7.002 -18.109  -5.151  0.00  0.00     0.190 A 
ATOM      7  C   UNL d   1      -7.201 -17.753  -6.065  0.00  0.00     0.094 A 
ATOM      8  C   UNL d   1      -5.868 -18.687  -3.935  0.00  0.00     0.085 A 
ATOM      9  C   UNL d   1      -4.329 -18.382  -5.284  0.00  0.00     0.075 A 
ATOM     10  C   UNL d   1      -4.114 -18.753  -4.335  0.00  0.00     0.071 A 
ATOM     11  C   UNL d   1      -4.889 -18.906  -3.656  0.00  0.00     0.074 A 
ENDROOT
BRANCH   4  12
ATOM     12  C   UNL d   1      -6.656 -17.251  -7.630  0.00  0.00     0.001 A 
ATOM     13  C   UNL d   1      -6.577 -17.849  -8.427  0.00  0.00     0.054 A 
ATOM     14  C   UNL d   1      -6.775 -17.493  -9.341  0.00  0.00     0.102 A 
ATOM     15  C   UNL d   1      -7.053 -16.540  -9.456  0.00  0.00     0.099 A 
ATOM     16  C   UNL d   1      -7.132 -15.942  -8.659  0.00  0.00     0.040 A 
ATOM     17  C   UNL d   1      -6.933 -16.297  -7.746  0.00  0.00     0.017 A 
BRANCH  14  18
ATOM     18  O   UNL d   1      -6.696 -18.091 -10.138  0.00  0.00    -0.353 OA
ATOM     19  C   UNL d   1      -6.822 -19.078 -10.037  0.00  0.00     0.210 C 
ENDBRANCH  14  18
BRANCH  15  20
ATOM     20  O   UNL d   1      -7.252 -16.184 -10.370  0.00  0.00    -0.358 OA
ATOM     21  H   UNL d   1      -7.839 -16.135 -10.562  0.00  0.00     0.217 HD
ENDBRANCH  15  20
ENDBRANCH   4  12
BRANCH   8  22
ATOM     22  O   UNL d   1      -6.620 -18.830  -3.292  0.00  0.00    -0.360 OA
ATOM     23  H   UNL d   1      -6.677 -19.373  -2.999  0.00  0.00     0.217 HD
ENDBRANCH   8  22
BRANCH  10  24
ATOM     24  O   UNL d   1      -3.170 -18.959  -4.077  0.00  0.00    -0.361 OA
ATOM     25  H   UNL d   1      -2.987 -18.888  -3.489  0.00  0.00     0.217 HD
ENDBRANCH  10  24
TORSDOF 5
ENDMDL
