MODEL 1
REMARK VINA RESULT:   -10.304      0.000      0.000
REMARK INTER + INTRA:         -11.339
REMARK INTER:                 -12.650
REMARK INTRA:                   1.311
REMARK UNBOUND:                 1.374
REMARK  6 active torsions:
REMARK  status: ('A' for Active; 'I' for Inactive)
REMARK    1  A    between atoms: C_22  and  O_1 
REMARK    2  A    between atoms: C_24  and  O_2 
REMARK    3  A    between atoms: O_3  and  C_30 
REMARK    4  A    between atoms: O_4  and  C_33 
REMARK    5  A    between atoms: C_14  and  C_30 
REMARK    6  A    between atoms: C_19  and  C_33 
ROOT
ATOM      1  C   UNL d   1       7.640  23.793  22.931  0.00  0.00    -0.028 A 
ATOM      2  C   UNL d   1       7.521  24.471  22.205  0.00  0.00     0.007 A 
ATOM      3  C   UNL d   1       6.574  24.823  21.953  0.00  0.00    -0.033 A 
ATOM      4  C   UNL d   1       8.555  23.464  23.163  0.00  0.00    -0.013 A 
ATOM      5  C   UNL d   1       5.740  24.466  22.463  0.00  0.00     0.007 A 
ATOM      6  C   UNL d   1       6.820  23.422  23.455  0.00  0.00     0.011 A 
ATOM      7  C   UNL d   1       9.352  23.811  22.669  0.00  0.00    -0.069 A 
ATOM      8  C   UNL d   1       5.863  23.760  23.219  0.00  0.00     0.007 A 
ATOM      9  C   UNL d   1       4.743  24.819  22.217  0.00  0.00     0.010 A 
ATOM     10  C   UNL d   1      10.311  23.478  22.899  0.00  0.00     0.038 A 
ATOM     11  C   UNL d   1       8.318  24.818  21.711  0.00  0.00     0.033 A 
ATOM     12  C   UNL d   1       6.470  25.559  21.161  0.00  0.00     0.044 A 
ATOM     13  C   UNL d   1       8.662  22.758  23.922  0.00  0.00     0.016 A 
ATOM     14  C   UNL d   1      10.442  22.772  23.654  0.00  0.00     0.053 A 
ATOM     15  C   UNL d   1       7.413  23.153  23.666  0.00  0.00     0.016 C 
ATOM     16  C   UNL d   1       9.612  22.410  24.169  0.00  0.00     0.022 A 
ATOM     17  C   UNL d   1       4.615  25.554  21.430  0.00  0.00     0.157 A 
ATOM     18  C   UNL d   1       9.233  24.489  21.943  0.00  0.00    -0.022 A 
ATOM     19  C   UNL d   1       5.484  25.926  20.898  0.00  0.00     0.148 A 
ATOM     20  C   UNL d   1       7.376  25.167  21.463  0.00  0.00     0.016 C 
ATOM     21  C   UNL d   1       8.010  22.938  23.817  0.00  0.00     0.021 C 
ATOM     22  C   UNL d   1      11.160  23.869  22.349  0.00  0.00    -0.005 A 
ATOM     23  C   UNL d   1      11.432  22.409  23.912  0.00  0.00     0.021 A 
ATOM     24  C   UNL d   1      12.160  23.521  22.589  0.00  0.00    -0.014 A 
ATOM     25  C   UNL d   1       4.356  24.226  22.923  0.00  0.00     0.020 C 
ATOM     26  C   UNL d   1      12.297  22.786  23.375  0.00  0.00     0.006 A 
ATOM     27  C   UNL d   1      11.023  24.547  21.626  0.00  0.00     0.011 C 
ATOM     28  C   UNL d   1      12.949  23.876  22.088  0.00  0.00     0.010 C 
ENDROOT
BRANCH   9  29
ATOM     29  C   UNL d   1       3.756  24.806  22.372  0.00  0.00     0.176 C 
BRANCH  29  30
ATOM     30  O   UNL d   1       3.357  24.144  23.007  0.00  0.00    -0.400 OA
ATOM     31  H   UNL d   1       2.784  23.928  22.910  0.00  0.00     0.209 HD
ENDBRANCH  29  30
ENDBRANCH   9  29
BRANCH  17  32
ATOM     32  O   UNL d   1       3.701  25.886  21.195  0.00  0.00    -0.392 OA
ATOM     33  H   UNL d   1       3.592  26.120  20.632  0.00  0.00     0.210 HD
ENDBRANCH  17  32
BRANCH  19  34
ATOM     34  O   UNL d   1       5.377  26.604  20.171  0.00  0.00    -0.393 OA
ATOM     35  H   UNL d   1       5.013  26.481  19.684  0.00  0.00     0.210 HD
ENDBRANCH  19  34
BRANCH  14  36
ATOM     36  C   UNL d   1      10.569  22.095  24.379  0.00  0.00     0.149 C 
ATOM     37  O   UNL d   1      10.733  22.394  25.319  0.00  0.00    -0.649 OA
BRANCH  36  38
ATOM     38  O   UNL d   1      10.532  21.119  24.164  0.00  0.00    -0.776 OA
ATOM     39  H   UNL d   1      11.050  20.780  24.175  0.00  0.00     0.167 HD
ENDBRANCH  36  38
ENDBRANCH  14  36
TORSDOF 6
ENDMDL
MODEL 2
REMARK VINA RESULT:   -10.258      1.149      5.768
REMARK INTER + INTRA:         -11.282
REMARK INTER:                 -12.592
REMARK INTRA:                   1.310
REMARK UNBOUND:                 1.374
REMARK  6 active torsions:
REMARK  status: ('A' for Active; 'I' for Inactive)
REMARK    1  A    between atoms: C_22  and  O_1 
REMARK    2  A    between atoms: C_24  and  O_2 
REMARK    3  A    between atoms: O_3  and  C_30 
REMARK    4  A    between atoms: O_4  and  C_33 
REMARK    5  A    between atoms: C_14  and  C_30 
REMARK    6  A    between atoms: C_19  and  C_33 
ROOT
ATOM      1  C   UNL d   1       8.642  23.221  23.428  0.00  0.00    -0.028 A 
ATOM      2  C   UNL d   1       9.544  23.437  23.056  0.00  0.00     0.007 A 
ATOM      3  C   UNL d   1      10.404  22.999  23.449  0.00  0.00    -0.033 A 
ATOM      4  C   UNL d   1       7.825  23.649  23.041  0.00  0.00    -0.013 A 
ATOM      5  C   UNL d   1      10.322  22.328  24.241  0.00  0.00     0.007 A 
ATOM      6  C   UNL d   1       8.536  22.553  24.220  0.00  0.00     0.011 A 
ATOM      7  C   UNL d   1       7.911  24.292  22.280  0.00  0.00    -0.069 A 
ATOM      8  C   UNL d   1       9.382  22.103  24.630  0.00  0.00     0.007 A 
ATOM      9  C   UNL d   1      11.203  21.860  24.667  0.00  0.00     0.010 A 
ATOM     10  C   UNL d   1       7.070  24.746  21.865  0.00  0.00     0.038 A 
ATOM     11  C   UNL d   1       9.630  24.080  22.295  0.00  0.00     0.033 A 
ATOM     12  C   UNL d   1      11.372  23.248  23.028  0.00  0.00     0.044 A 
ATOM     13  C   UNL d   1       6.892  23.414  23.440  0.00  0.00     0.016 A 
ATOM     14  C   UNL d   1       6.127  24.526  22.248  0.00  0.00     0.053 A 
ATOM     15  C   UNL d   1       7.938  22.807  24.006  0.00  0.00     0.016 C 
ATOM     16  C   UNL d   1       6.037  23.856  23.041  0.00  0.00     0.022 A 
ATOM     17  C   UNL d   1      12.182  22.093  24.263  0.00  0.00     0.157 A 
ATOM     18  C   UNL d   1       8.814  24.508  21.907  0.00  0.00    -0.022 A 
ATOM     19  C   UNL d   1      12.267  22.792  23.438  0.00  0.00     0.148 A 
ATOM     20  C   UNL d   1      10.482  23.643  22.688  0.00  0.00     0.016 C 
ATOM     21  C   UNL d   1       7.405  23.086  23.753  0.00  0.00     0.021 C 
ATOM     22  C   UNL d   1       7.188  25.441  21.041  0.00  0.00    -0.005 A 
ATOM     23  C   UNL d   1       5.236  24.986  21.833  0.00  0.00     0.021 A 
ATOM     24  C   UNL d   1       6.312  25.913  20.609  0.00  0.00    -0.014 A 
ATOM     25  C   UNL d   1      10.629  21.365  25.320  0.00  0.00     0.020 C 
ATOM     26  C   UNL d   1       5.329  25.684  21.008  0.00  0.00     0.006 A 
ATOM     27  C   UNL d   1       8.099  25.645  20.680  0.00  0.00     0.011 C 
ATOM     28  C   UNL d   1       6.410  26.555  19.849  0.00  0.00     0.010 C 
ENDROOT
BRANCH   9  29
ATOM     29  C   UNL d   1      11.621  21.240  25.332  0.00  0.00     0.176 C 
BRANCH  29  30
ATOM     30  O   UNL d   1      11.060  20.817  26.043  0.00  0.00    -0.400 OA
ATOM     31  H   UNL d   1      11.323  20.450  26.468  0.00  0.00     0.209 HD
ENDBRANCH  29  30
ENDBRANCH   9  29
BRANCH  17  32
ATOM     32  O   UNL d   1      13.001  21.668  24.648  0.00  0.00    -0.392 OA
ATOM     33  H   UNL d   1      12.971  21.096  24.886  0.00  0.00     0.210 HD
ENDBRANCH  17  32
BRANCH  19  34
ATOM     34  O   UNL d   1      13.165  23.015  23.057  0.00  0.00    -0.393 OA
ATOM     35  H   UNL d   1      13.429  23.561  23.185  0.00  0.00     0.210 HD
ENDBRANCH  19  34
BRANCH  14  36
ATOM     36  C   UNL d   1       5.221  24.316  22.616  0.00  0.00     0.149 C 
ATOM     37  O   UNL d   1       4.845  24.865  23.363  0.00  0.00    -0.649 OA
BRANCH  36  38
ATOM     38  O   UNL d   1       4.691  23.558  22.237  0.00  0.00    -0.776 OA
ATOM     39  H   UNL d   1       4.292  23.248  22.597  0.00  0.00     0.167 HD
ENDBRANCH  36  38
ENDBRANCH  14  36
TORSDOF 6
ENDMDL
MODEL 3
REMARK VINA RESULT:   -10.182      3.325      7.659
REMARK INTER + INTRA:         -11.188
REMARK INTER:                 -12.550
REMARK INTRA:                   1.362
REMARK UNBOUND:                 1.374
REMARK  6 active torsions:
REMARK  status: ('A' for Active; 'I' for Inactive)
REMARK    1  A    between atoms: C_22  and  O_1 
REMARK    2  A    between atoms: C_24  and  O_2 
REMARK    3  A    between atoms: O_3  and  C_30 
REMARK    4  A    between atoms: O_4  and  C_33 
REMARK    5  A    between atoms: C_14  and  C_30 
REMARK    6  A    between atoms: C_19  and  C_33 
ROOT
ATOM      1  C   UNL d   1      12.112  20.267  23.784  0.00  0.00    -0.028 A 
ATOM      2  C   UNL d   1      12.898  20.382  23.177  0.00  0.00     0.007 A 
ATOM      3  C   UNL d   1      13.649  19.661  23.133  0.00  0.00    -0.033 A 
ATOM      4  C   UNL d   1      11.399  20.967  23.815  0.00  0.00    -0.013 A 
ATOM      5  C   UNL d   1      13.580  18.810  23.729  0.00  0.00     0.007 A 
ATOM      6  C   UNL d   1      12.022  19.424  24.388  0.00  0.00     0.011 A 
ATOM      7  C   UNL d   1      11.471  21.782  23.240  0.00  0.00    -0.069 A 
ATOM      8  C   UNL d   1      12.761  18.691  24.361  0.00  0.00     0.007 A 
ATOM      9  C   UNL d   1      14.351  18.046  23.700  0.00  0.00     0.010 A 
ATOM     10  C   UNL d   1      10.736  22.520  23.262  0.00  0.00     0.038 A 
ATOM     11  C   UNL d   1      12.971  21.196  22.601  0.00  0.00     0.033 A 
ATOM     12  C   UNL d   1      14.493  19.807  22.466  0.00  0.00     0.044 A 
ATOM     13  C   UNL d   1      10.585  20.833  24.453  0.00  0.00     0.016 A 
ATOM     14  C   UNL d   1       9.914  22.407  23.892  0.00  0.00     0.053 A 
ATOM     15  C   UNL d   1      11.499  19.860  24.461  0.00  0.00     0.016 C 
ATOM     16  C   UNL d   1       9.838  21.558  24.491  0.00  0.00     0.022 A 
ATOM     17  C   UNL d   1      15.203  18.170  23.042  0.00  0.00     0.157 A 
ATOM     18  C   UNL d   1      12.258  21.896  22.633  0.00  0.00    -0.022 A 
ATOM     19  C   UNL d   1      15.275  19.057  22.420  0.00  0.00     0.148 A 
ATOM     20  C   UNL d   1      13.715  20.479  22.560  0.00  0.00     0.016 C 
ATOM     21  C   UNL d   1      11.034  20.317  24.482  0.00  0.00     0.021 C 
ATOM     22  C   UNL d   1      10.837  23.394  22.629  0.00  0.00    -0.005 A 
ATOM     23  C   UNL d   1       9.136  23.162  23.932  0.00  0.00     0.021 A 
ATOM     24  C   UNL d   1      10.071  24.163  22.652  0.00  0.00    -0.014 A 
ATOM     25  C   UNL d   1      13.851  17.513  24.383  0.00  0.00     0.020 C 
ATOM     26  C   UNL d   1       9.215  24.046  23.308  0.00  0.00     0.006 A 
ATOM     27  C   UNL d   1      11.631  23.493  22.027  0.00  0.00     0.011 C 
ATOM     28  C   UNL d   1      10.155  24.973  22.072  0.00  0.00     0.010 C 
ENDROOT
BRANCH   9  29
ATOM     29  C   UNL d   1      14.717  17.171  24.016  0.00  0.00     0.176 C 
BRANCH  29  30
ATOM     30  O   UNL d   1      14.110  16.384  24.124  0.00  0.00    -0.400 OA
ATOM     31  H   UNL d   1      13.687  16.378  24.577  0.00  0.00     0.209 HD
ENDBRANCH  29  30
ENDBRANCH   9  29
BRANCH  17  32
ATOM     32  O   UNL d   1      15.919  17.473  23.007  0.00  0.00    -0.392 OA
ATOM     33  H   UNL d   1      16.412  17.515  23.380  0.00  0.00     0.210 HD
ENDBRANCH  17  32
BRANCH  19  34
ATOM     34  O   UNL d   1      16.057  19.182  21.810  0.00  0.00    -0.393 OA
ATOM     35  H   UNL d   1      16.505  19.584  21.957  0.00  0.00     0.210 HD
ENDBRANCH  19  34
BRANCH  14  36
ATOM     36  C   UNL d   1       9.125  22.300  24.496  0.00  0.00     0.149 C 
ATOM     37  O   UNL d   1       9.178  22.608  25.446  0.00  0.00    -0.649 OA
BRANCH  36  38
ATOM     38  O   UNL d   1       8.284  21.884  24.152  0.00  0.00    -0.776 OA
ATOM     39  H   UNL d   1       8.225  21.267  24.140  0.00  0.00     0.167 HD
ENDBRANCH  36  38
ENDBRANCH  14  36
TORSDOF 6
ENDMDL
MODEL 4
REMARK VINA RESULT:   -10.122     18.001     19.539
REMARK INTER + INTRA:         -11.114
REMARK INTER:                 -12.428
REMARK INTRA:                   1.313
REMARK UNBOUND:                 1.374
REMARK  6 active torsions:
REMARK  status: ('A' for Active; 'I' for Inactive)
REMARK    1  A    between atoms: C_22  and  O_1 
REMARK    2  A    between atoms: C_24  and  O_2 
REMARK    3  A    between atoms: O_3  and  C_30 
REMARK    4  A    between atoms: O_4  and  C_33 
REMARK    5  A    between atoms: C_14  and  C_30 
REMARK    6  A    between atoms: C_19  and  C_33 
ROOT
ATOM      1  C   UNL d   1      -2.846   8.866  19.231  0.00  0.00    -0.028 A 
ATOM      2  C   UNL d   1      -3.537   9.564  19.422  0.00  0.00     0.007 A 
ATOM      3  C   UNL d   1      -3.670   9.934  20.387  0.00  0.00    -0.033 A 
ATOM      4  C   UNL d   1      -2.730   8.520  18.300  0.00  0.00    -0.013 A 
ATOM      5  C   UNL d   1      -3.076   9.573  21.162  0.00  0.00     0.007 A 
ATOM      6  C   UNL d   1      -2.241   8.491  19.991  0.00  0.00     0.011 A 
ATOM      7  C   UNL d   1      -3.304   8.871  17.561  0.00  0.00    -0.069 A 
ATOM      8  C   UNL d   1      -2.357   8.847  20.963  0.00  0.00     0.007 A 
ATOM      9  C   UNL d   1      -3.196   9.944  22.175  0.00  0.00     0.010 A 
ATOM     10  C   UNL d   1      -3.195   8.520  16.586  0.00  0.00     0.038 A 
ATOM     11  C   UNL d   1      -4.111   9.915  18.683  0.00  0.00     0.033 A 
ATOM     12  C   UNL d   1      -4.426  10.691  20.570  0.00  0.00     0.044 A 
ATOM     13  C   UNL d   1      -2.006   7.793  18.117  0.00  0.00     0.016 A 
ATOM     14  C   UNL d   1      -2.478   7.793  16.379  0.00  0.00     0.053 A 
ATOM     15  C   UNL d   1      -2.107   8.210  19.381  0.00  0.00     0.016 C 
ATOM     16  C   UNL d   1      -1.879   7.428  17.150  0.00  0.00     0.022 A 
ATOM     17  C   UNL d   1      -3.945  10.701  22.383  0.00  0.00     0.157 A 
ATOM     18  C   UNL d   1      -3.995   9.569  17.752  0.00  0.00    -0.022 A 
ATOM     19  C   UNL d   1      -4.564  11.077  21.575  0.00  0.00     0.148 A 
ATOM     20  C   UNL d   1      -4.240  10.280  19.642  0.00  0.00     0.016 C 
ATOM     21  C   UNL d   1      -2.031   7.984  18.774  0.00  0.00     0.021 C 
ATOM     22  C   UNL d   1      -3.829   8.916  15.800  0.00  0.00    -0.005 A 
ATOM     23  C   UNL d   1      -2.345   7.412  15.372  0.00  0.00     0.021 A 
ATOM     24  C   UNL d   1      -3.715   8.550  14.785  0.00  0.00    -0.014 A 
ATOM     25  C   UNL d   1      -2.465   9.337  22.488  0.00  0.00     0.020 C 
ATOM     26  C   UNL d   1      -2.968   7.793  14.569  0.00  0.00     0.006 A 
ATOM     27  C   UNL d   1      -4.515   9.614  16.010  0.00  0.00     0.011 C 
ATOM     28  C   UNL d   1      -4.295   8.909  14.053  0.00  0.00     0.010 C 
ENDROOT
BRANCH   9  29
ATOM     29  C   UNL d   1      -2.929   9.938  23.139  0.00  0.00     0.176 C 
BRANCH  29  30
ATOM     30  O   UNL d   1      -2.343   9.209  23.491  0.00  0.00    -0.400 OA
ATOM     31  H   UNL d   1      -2.330   8.658  23.208  0.00  0.00     0.209 HD
ENDBRANCH  29  30
ENDBRANCH   9  29
BRANCH  17  32
ATOM     32  O   UNL d   1      -4.064  11.050  23.312  0.00  0.00    -0.392 OA
ATOM     33  H   UNL d   1      -3.682  11.486  23.531  0.00  0.00     0.210 HD
ENDBRANCH  17  32
BRANCH  19  34
ATOM     34  O   UNL d   1      -5.257  11.774  21.755  0.00  0.00    -0.393 OA
ATOM     35  H   UNL d   1      -5.306  12.267  21.382  0.00  0.00     0.210 HD
ENDBRANCH  19  34
BRANCH  14  36
ATOM     36  C   UNL d   1      -1.789   7.096  16.180  0.00  0.00     0.149 C 
ATOM     37  O   UNL d   1      -2.019   6.127  16.274  0.00  0.00    -0.649 OA
BRANCH  36  38
ATOM     38  O   UNL d   1      -0.873   7.367  15.887  0.00  0.00    -0.776 OA
ATOM     39  H   UNL d   1      -0.380   7.214  16.231  0.00  0.00     0.167 HD
ENDBRANCH  36  38
ENDBRANCH  14  36
TORSDOF 6
ENDMDL
MODEL 5
REMARK VINA RESULT:   -10.116      1.047      2.563
REMARK INTER + INTRA:         -11.107
REMARK INTER:                 -12.417
REMARK INTRA:                   1.309
REMARK UNBOUND:                 1.374
REMARK  6 active torsions:
REMARK  status: ('A' for Active; 'I' for Inactive)
REMARK    1  A    between atoms: C_22  and  O_1 
REMARK    2  A    between atoms: C_24  and  O_2 
REMARK    3  A    between atoms: O_3  and  C_30 
REMARK    4  A    between atoms: O_4  and  C_33 
REMARK    5  A    between atoms: C_14  and  C_30 
REMARK    6  A    between atoms: C_19  and  C_33 
ROOT
ATOM      1  C   UNL d   1       7.913  24.418  22.192  0.00  0.00    -0.028 A 
ATOM      2  C   UNL d   1       7.125  24.048  22.684  0.00  0.00     0.007 A 
ATOM      3  C   UNL d   1       6.157  24.353  22.450  0.00  0.00    -0.033 A 
ATOM      4  C   UNL d   1       8.837  24.116  22.427  0.00  0.00    -0.013 A 
ATOM      5  C   UNL d   1       6.008  25.052  21.694  0.00  0.00     0.007 A 
ATOM      6  C   UNL d   1       7.788  25.118  21.432  0.00  0.00     0.011 A 
ATOM      7  C   UNL d   1       8.973  23.444  23.155  0.00  0.00    -0.069 A 
ATOM      8  C   UNL d   1       6.828  25.438  21.181  0.00  0.00     0.007 A 
ATOM      9  C   UNL d   1       5.008  25.385  21.432  0.00  0.00     0.010 A 
ATOM     10  C   UNL d   1       9.929  23.119  23.412  0.00  0.00     0.038 A 
ATOM     11  C   UNL d   1       7.261  23.376  23.412  0.00  0.00     0.033 A 
ATOM     12  C   UNL d   1       5.318  23.938  22.998  0.00  0.00     0.044 A 
ATOM     13  C   UNL d   1       9.648  24.511  21.906  0.00  0.00     0.016 A 
ATOM     14  C   UNL d   1      10.754  23.501  22.904  0.00  0.00     0.053 A 
ATOM     15  C   UNL d   1       8.445  24.958  21.539  0.00  0.00     0.016 C 
ATOM     16  C   UNL d   1      10.613  24.201  22.145  0.00  0.00     0.022 A 
ATOM     17  C   UNL d   1       4.154  24.984  21.966  0.00  0.00     0.157 A 
ATOM     18  C   UNL d   1       8.185  23.074  23.648  0.00  0.00    -0.022 A 
ATOM     19  C   UNL d   1       4.309  24.255  22.754  0.00  0.00     0.148 A 
ATOM     20  C   UNL d   1       6.301  23.681  23.177  0.00  0.00     0.016 C 
ATOM     21  C   UNL d   1       9.047  24.761  21.693  0.00  0.00     0.021 C 
ATOM     22  C   UNL d   1      10.052  22.390  24.205  0.00  0.00    -0.005 A 
ATOM     23  C   UNL d   1      11.760  23.178  23.153  0.00  0.00     0.021 A 
ATOM     24  C   UNL d   1      11.047  22.052  24.472  0.00  0.00    -0.014 A 
ATOM     25  C   UNL d   1       5.389  25.986  20.728  0.00  0.00     0.020 C 
ATOM     26  C   UNL d   1      11.908  22.449  23.943  0.00  0.00     0.006 A 
ATOM     27  C   UNL d   1       9.252  22.030  24.687  0.00  0.00     0.011 C 
ATOM     28  C   UNL d   1      11.171  21.380  25.202  0.00  0.00     0.010 C 
ENDROOT
BRANCH   9  29
ATOM     29  C   UNL d   1       4.400  25.949  20.874  0.00  0.00     0.176 C 
BRANCH  29  30
ATOM     30  O   UNL d   1       4.667  26.206  19.945  0.00  0.00    -0.400 OA
ATOM     31  H   UNL d   1       5.175  26.550  19.853  0.00  0.00     0.209 HD
ENDBRANCH  29  30
ENDBRANCH   9  29
BRANCH  17  32
ATOM     32  O   UNL d   1       3.229  25.283  21.733  0.00  0.00    -0.392 OA
ATOM     33  H   UNL d   1       2.935  25.692  22.095  0.00  0.00     0.210 HD
ENDBRANCH  17  32
BRANCH  19  34
ATOM     34  O   UNL d   1       3.529  23.879  23.253  0.00  0.00    -0.393 OA
ATOM     35  H   UNL d   1       3.296  24.183  23.741  0.00  0.00     0.210 HD
ENDBRANCH  19  34
BRANCH  14  36
ATOM     36  C   UNL d   1      11.547  23.866  22.416  0.00  0.00     0.149 C 
ATOM     37  O   UNL d   1      12.001  24.692  22.750  0.00  0.00    -0.649 OA
BRANCH  36  38
ATOM     38  O   UNL d   1      11.886  23.406  21.595  0.00  0.00    -0.776 OA
ATOM     39  H   UNL d   1      11.738  23.625  21.035  0.00  0.00     0.167 HD
ENDBRANCH  36  38
ENDBRANCH  14  36
TORSDOF 6
ENDMDL
