MODEL 1
REMARK VINA RESULT:    -9.305      0.000      0.000
REMARK INTER + INTRA:          -9.206
REMARK INTER:                 -10.213
REMARK INTRA:                   1.007
REMARK UNBOUND:                 1.187
REMARK  3 active torsions:
REMARK  status: ('A' for Active; 'I' for Inactive)
REMARK    1  A    between atoms: O_2  and  C_10 
REMARK    2  A    between atoms: O_4  and  C_13 
REMARK    3  A    between atoms: C_7  and  C_9 
ROOT
ATOM      1  O   UNL d   1      12.596  20.602  27.183  0.00  0.00    -0.309 OA
ATOM      2  O   UNL d   1      14.671  19.924  29.241  0.00  0.00    -0.287 OA
ATOM      3  C   UNL d   1      14.195  20.067  27.582  0.00  0.00     0.081 A 
ATOM      4  C   UNL d   1      13.503  20.292  26.896  0.00  0.00     0.095 A 
ATOM      5  C   UNL d   1      12.381  20.685  28.156  0.00  0.00     0.090 A 
ATOM      6  C   UNL d   1      13.980  20.150  28.555  0.00  0.00     0.190 A 
ATOM      7  C   UNL d   1      15.143  19.743  27.298  0.00  0.00     0.085 A 
ATOM      8  C   UNL d   1      13.073  20.459  28.842  0.00  0.00     0.094 A 
ATOM      9  C   UNL d   1      13.712  20.211  25.878  0.00  0.00     0.075 A 
ATOM     10  C   UNL d   1      14.654  19.889  25.572  0.00  0.00     0.071 A 
ATOM     11  C   UNL d   1      15.374  19.654  26.286  0.00  0.00     0.074 A 
ENDROOT
BRANCH   5  12
ATOM     12  C   UNL d   1      11.475  20.994  28.443  0.00  0.00    -0.002 A 
ATOM     13  C   UNL d   1      10.749  20.327  28.612  0.00  0.00     0.014 A 
ATOM     14  C   UNL d   1       9.843  20.636  28.899  0.00  0.00     0.001 A 
ATOM     15  C   UNL d   1       9.661  21.612  29.017  0.00  0.00     0.000 A 
ATOM     16  C   UNL d   1      10.387  22.280  28.847  0.00  0.00     0.001 A 
ATOM     17  C   UNL d   1      11.293  21.970  28.560  0.00  0.00     0.014 A 
ENDBRANCH   5  12
BRANCH   7  18
ATOM     18  O   UNL d   1      15.827  19.520  27.993  0.00  0.00    -0.360 OA
ATOM     19  H   UNL d   1      15.719  19.656  28.588  0.00  0.00     0.217 HD
ENDBRANCH   7  18
BRANCH  10  20
ATOM     20  O   UNL d   1      14.865  19.807  24.598  0.00  0.00    -0.361 OA
ATOM     21  H   UNL d   1      14.424  19.914  24.175  0.00  0.00     0.217 HD
ENDBRANCH  10  20
TORSDOF 3
ENDMDL
MODEL 2
REMARK VINA RESULT:    -9.285      2.412      3.210
REMARK INTER + INTRA:          -9.184
REMARK INTER:                 -10.307
REMARK INTRA:                   1.123
REMARK UNBOUND:                 1.187
REMARK  3 active torsions:
REMARK  status: ('A' for Active; 'I' for Inactive)
REMARK    1  A    between atoms: O_2  and  C_10 
REMARK    2  A    between atoms: O_4  and  C_13 
REMARK    3  A    between atoms: C_7  and  C_9 
ROOT
ATOM      1  O   UNL d   1      14.242  22.339  27.331  0.00  0.00    -0.309 OA
ATOM      2  O   UNL d   1      12.062  20.599  28.436  0.00  0.00    -0.287 OA
ATOM      3  C   UNL d   1      13.300  20.887  27.260  0.00  0.00     0.081 A 
ATOM      4  C   UNL d   1      14.027  21.467  26.892  0.00  0.00     0.095 A 
ATOM      5  C   UNL d   1      13.730  22.631  28.139  0.00  0.00     0.090 A 
ATOM      6  C   UNL d   1      12.789  21.179  28.068  0.00  0.00     0.190 A 
ATOM      7  C   UNL d   1      13.066  19.977  26.813  0.00  0.00     0.085 A 
ATOM      8  C   UNL d   1      13.004  22.051  28.508  0.00  0.00     0.094 A 
ATOM      9  C   UNL d   1      14.569  21.177  26.050  0.00  0.00     0.075 A 
ATOM     10  C   UNL d   1      14.351  20.270  25.587  0.00  0.00     0.071 A 
ATOM     11  C   UNL d   1      13.594  19.666  25.971  0.00  0.00     0.074 A 
ENDROOT
BRANCH   5  12
ATOM     12  C   UNL d   1      13.945  23.503  28.579  0.00  0.00    -0.002 A 
ATOM     13  C   UNL d   1      13.232  24.196  28.692  0.00  0.00     0.014 A 
ATOM     14  C   UNL d   1      13.446  25.068  29.131  0.00  0.00     0.001 A 
ATOM     15  C   UNL d   1      14.374  25.248  29.458  0.00  0.00     0.000 A 
ATOM     16  C   UNL d   1      15.087  24.556  29.345  0.00  0.00     0.001 A 
ATOM     17  C   UNL d   1      14.872  23.684  28.906  0.00  0.00     0.014 A 
ENDBRANCH   5  12
BRANCH   7  18
ATOM     18  O   UNL d   1      12.337  19.404  27.190  0.00  0.00    -0.360 OA
ATOM     19  H   UNL d   1      11.950  19.636  27.614  0.00  0.00     0.217 HD
ENDBRANCH   7  18
BRANCH  10  20
ATOM     20  O   UNL d   1      14.865  19.982  24.779  0.00  0.00    -0.361 OA
ATOM     21  H   UNL d   1      14.986  19.381  24.687  0.00  0.00     0.217 HD
ENDBRANCH  10  20
TORSDOF 3
ENDMDL
MODEL 3
REMARK VINA RESULT:    -9.003      3.105      4.591
REMARK INTER + INTRA:          -8.869
REMARK INTER:                  -9.900
REMARK INTRA:                   1.031
REMARK UNBOUND:                 1.187
REMARK  3 active torsions:
REMARK  status: ('A' for Active; 'I' for Inactive)
REMARK    1  A    between atoms: O_2  and  C_10 
REMARK    2  A    between atoms: O_4  and  C_13 
REMARK    3  A    between atoms: C_7  and  C_9 
ROOT
ATOM      1  O   UNL d   1      13.795  22.836  26.765  0.00  0.00    -0.309 OA
ATOM      2  O   UNL d   1      10.868  22.558  26.168  0.00  0.00    -0.287 OA
ATOM      3  C   UNL d   1      12.351  23.440  26.022  0.00  0.00     0.081 A 
ATOM      4  C   UNL d   1      13.327  23.533  26.221  0.00  0.00     0.095 A 
ATOM      5  C   UNL d   1      13.287  22.047  27.109  0.00  0.00     0.090 A 
ATOM      6  C   UNL d   1      11.843  22.651  26.367  0.00  0.00     0.190 A 
ATOM      7  C   UNL d   1      11.850  24.158  25.457  0.00  0.00     0.085 A 
ATOM      8  C   UNL d   1      12.311  21.954  26.910  0.00  0.00     0.094 A 
ATOM      9  C   UNL d   1      13.869  24.350  25.869  0.00  0.00     0.075 A 
ATOM     10  C   UNL d   1      13.388  25.080  25.302  0.00  0.00     0.071 A 
ATOM     11  C   UNL d   1      12.373  24.983  25.095  0.00  0.00     0.074 A 
ENDROOT
BRANCH   5  12
ATOM     12  C   UNL d   1      13.755  21.350  27.653  0.00  0.00    -0.002 A 
ATOM     13  C   UNL d   1      13.594  21.294  28.638  0.00  0.00     0.014 A 
ATOM     14  C   UNL d   1      14.062  20.597  29.182  0.00  0.00     0.001 A 
ATOM     15  C   UNL d   1      14.691  19.957  28.740  0.00  0.00     0.000 A 
ATOM     16  C   UNL d   1      14.851  20.013  27.755  0.00  0.00     0.001 A 
ATOM     17  C   UNL d   1      14.383  20.710  27.211  0.00  0.00     0.014 A 
ENDBRANCH   5  12
BRANCH   7  18
ATOM     18  O   UNL d   1      10.875  24.055  25.265  0.00  0.00    -0.360 OA
ATOM     19  H   UNL d   1      10.557  24.524  25.014  0.00  0.00     0.217 HD
ENDBRANCH   7  18
BRANCH  10  20
ATOM     20  O   UNL d   1      13.900  25.868  24.959  0.00  0.00    -0.361 OA
ATOM     21  H   UNL d   1      13.700  26.173  24.457  0.00  0.00     0.217 HD
ENDBRANCH  10  20
TORSDOF 3
ENDMDL
MODEL 4
REMARK VINA RESULT:    -8.941      2.596      3.562
REMARK INTER + INTRA:          -8.799
REMARK INTER:                  -9.822
REMARK INTRA:                   1.022
REMARK UNBOUND:                 1.187
REMARK  3 active torsions:
REMARK  status: ('A' for Active; 'I' for Inactive)
REMARK    1  A    between atoms: O_2  and  C_10 
REMARK    2  A    between atoms: O_4  and  C_13 
REMARK    3  A    between atoms: C_7  and  C_9 
ROOT
ATOM      1  O   UNL d   1      13.492  22.129  27.527  0.00  0.00    -0.309 OA
ATOM      2  O   UNL d   1      15.704  21.643  25.560  0.00  0.00    -0.287 OA
ATOM      3  C   UNL d   1      14.227  21.139  26.310  0.00  0.00     0.081 A 
ATOM      4  C   UNL d   1      13.490  21.301  26.966  0.00  0.00     0.095 A 
ATOM      5  C   UNL d   1      14.232  22.795  27.432  0.00  0.00     0.090 A 
ATOM      6  C   UNL d   1      14.967  21.805  26.215  0.00  0.00     0.190 A 
ATOM      7  C   UNL d   1      14.238  20.281  25.720  0.00  0.00     0.085 A 
ATOM      8  C   UNL d   1      14.969  22.633  26.776  0.00  0.00     0.094 A 
ATOM      9  C   UNL d   1      12.712  20.617  27.077  0.00  0.00     0.075 A 
ATOM     10  C   UNL d   1      12.703  19.752  26.496  0.00  0.00     0.071 A 
ATOM     11  C   UNL d   1      13.470  19.583  25.814  0.00  0.00     0.074 A 
ENDROOT
BRANCH   5  12
ATOM     12  C   UNL d   1      14.234  23.623  27.992  0.00  0.00    -0.002 A 
ATOM     13  C   UNL d   1      14.854  23.696  28.774  0.00  0.00     0.014 A 
ATOM     14  C   UNL d   1      14.857  24.524  29.334  0.00  0.00     0.001 A 
ATOM     15  C   UNL d   1      14.239  25.279  29.114  0.00  0.00     0.000 A 
ATOM     16  C   UNL d   1      13.619  25.206  28.332  0.00  0.00     0.001 A 
ATOM     17  C   UNL d   1      13.617  24.378  27.772  0.00  0.00     0.014 A 
ENDBRANCH   5  12
BRANCH   7  18
ATOM     18  O   UNL d   1      14.980  20.130  25.067  0.00  0.00    -0.360 OA
ATOM     19  H   UNL d   1      15.040  19.580  24.789  0.00  0.00     0.217 HD
ENDBRANCH   7  18
BRANCH  10  20
ATOM     20  O   UNL d   1      11.961  19.088  26.594  0.00  0.00    -0.361 OA
ATOM     21  H   UNL d   1      11.862  18.814  27.141  0.00  0.00     0.217 HD
ENDBRANCH  10  20
TORSDOF 3
ENDMDL
MODEL 5
REMARK VINA RESULT:    -8.932      3.501      5.386
REMARK INTER + INTRA:          -8.790
REMARK INTER:                  -9.789
REMARK INTRA:                   1.000
REMARK UNBOUND:                 1.187
REMARK  3 active torsions:
REMARK  status: ('A' for Active; 'I' for Inactive)
REMARK    1  A    between atoms: O_2  and  C_10 
REMARK    2  A    between atoms: O_4  and  C_13 
REMARK    3  A    between atoms: C_7  and  C_9 
ROOT
ATOM      1  O   UNL d   1      14.066  22.935  27.617  0.00  0.00    -0.309 OA
ATOM      2  O   UNL d   1      14.012  25.145  25.589  0.00  0.00    -0.287 OA
ATOM      3  C   UNL d   1      13.876  24.613  27.232  0.00  0.00     0.081 A 
ATOM      4  C   UNL d   1      13.894  23.876  27.908  0.00  0.00     0.095 A 
ATOM      5  C   UNL d   1      14.220  22.730  26.651  0.00  0.00     0.090 A 
ATOM      6  C   UNL d   1      14.030  24.408  26.265  0.00  0.00     0.190 A 
ATOM      7  C   UNL d   1      13.699  25.598  27.520  0.00  0.00     0.085 A 
ATOM      8  C   UNL d   1      14.202  23.467  25.974  0.00  0.00     0.094 A 
ATOM      9  C   UNL d   1      13.736  24.074  28.918  0.00  0.00     0.075 A 
ATOM     10  C   UNL d   1      13.556  25.052  29.229  0.00  0.00     0.071 A 
ATOM     11  C   UNL d   1      13.537  25.819  28.525  0.00  0.00     0.074 A 
ENDROOT
BRANCH   5  12
ATOM     12  C   UNL d   1      14.392  21.789  26.360  0.00  0.00    -0.002 A 
ATOM     13  C   UNL d   1      13.631  21.209  26.069  0.00  0.00     0.014 A 
ATOM     14  C   UNL d   1      13.803  20.268  25.778  0.00  0.00     0.001 A 
ATOM     15  C   UNL d   1      14.736  19.907  25.779  0.00  0.00     0.000 A 
ATOM     16  C   UNL d   1      15.496  20.487  26.070  0.00  0.00     0.001 A 
ATOM     17  C   UNL d   1      15.325  21.428  26.361  0.00  0.00     0.014 A 
ENDBRANCH   5  12
BRANCH   7  18
ATOM     18  O   UNL d   1      13.683  26.327  26.835  0.00  0.00    -0.360 OA
ATOM     19  H   UNL d   1      13.158  26.456  26.532  0.00  0.00     0.217 HD
ENDBRANCH   7  18
BRANCH  10  20
ATOM     20  O   UNL d   1      13.403  25.252  30.196  0.00  0.00    -0.361 OA
ATOM     21  H   UNL d   1      12.839  25.176  30.443  0.00  0.00     0.217 HD
ENDBRANCH  10  20
TORSDOF 3
ENDMDL
