MODEL 1
REMARK VINA RESULT:    -6.805      0.000      0.000
REMARK INTER + INTRA:          -6.805
REMARK INTER:                  -6.805
REMARK INTRA:                   0.000
REMARK UNBOUND:                 0.000
REMARK  0 active torsions:
REMARK  status: ('A' for Active; 'I' for Inactive)
ROOT
ATOM      1  O   UNL d   1      42.195  -9.995  14.851  0.00  0.00    -0.265 OA
ATOM      2  O   UNL d   1      44.431  -8.690  17.153  0.00  0.00    -0.246 OA
ATOM      3  N   UNL d   1      43.441  -7.628  16.209  0.00  0.00    -0.286 N 
ATOM      4  N   UNL d   1      41.656  -7.940  14.404  0.00  0.00    -0.338 N 
ATOM      5  N   UNL d   1      43.313  -9.342  16.002  0.00  0.00    -0.269 N 
ATOM      6  N   UNL d   1      42.325  -6.670  15.133  0.00  0.00    -0.223 NA
ATOM      7  C   UNL d   1      42.323  -8.280  15.058  0.00  0.00     0.151 A 
ATOM      8  C   UNL d   1      42.739  -7.491  15.511  0.00  0.00     0.167 A 
ATOM      9  C   UNL d   1      42.611  -9.206  15.304  0.00  0.00     0.282 A 
ATOM     10  C   UNL d   1      43.728  -8.553  16.455  0.00  0.00     0.332 A 
ATOM     11  C   UNL d   1      41.657  -6.947  14.450  0.00  0.00     0.212 A 
ATOM     12  C   UNL d   1      43.857  -6.839  16.662  0.00  0.00     0.163 C 
ATOM     13  C   UNL d   1      41.084  -8.499  13.805  0.00  0.00     0.157 C 
ATOM     14  C   UNL d   1      43.600 -10.268  16.248  0.00  0.00     0.164 C 
ENDROOT
TORSDOF 0
ENDMDL
MODEL 2
REMARK VINA RESULT:    -6.741      1.097      2.176
REMARK INTER + INTRA:          -6.741
REMARK INTER:                  -6.741
REMARK INTRA:                   0.000
REMARK UNBOUND:                 0.000
REMARK  0 active torsions:
REMARK  status: ('A' for Active; 'I' for Inactive)
ROOT
ATOM      1  O   UNL d   1      42.408  -6.682  15.021  0.00  0.00    -0.265 OA
ATOM      2  O   UNL d   1      44.435  -8.424  17.226  0.00  0.00    -0.246 OA
ATOM      3  N   UNL d   1      43.415  -9.285  16.122  0.00  0.00    -0.286 N 
ATOM      4  N   UNL d   1      41.742  -8.620  14.305  0.00  0.00    -0.338 N 
ATOM      5  N   UNL d   1      43.422  -7.553  16.123  0.00  0.00    -0.269 N 
ATOM      6  N   UNL d   1      42.283 -10.017  14.896  0.00  0.00    -0.223 NA
ATOM      7  C   UNL d   1      42.402  -8.414  15.020  0.00  0.00     0.151 A 
ATOM      8  C   UNL d   1      42.737  -9.282  15.387  0.00  0.00     0.167 A 
ATOM      9  C   UNL d   1      42.744  -7.550  15.388  0.00  0.00     0.282 A 
ATOM     10  C   UNL d   1      43.757  -8.421  16.490  0.00  0.00     0.332 A 
ATOM     11  C   UNL d   1      41.669  -9.608  14.228  0.00  0.00     0.212 A 
ATOM     12  C   UNL d   1      43.751 -10.153  16.489  0.00  0.00     0.163 C 
ATOM     13  C   UNL d   1      41.240  -7.950  13.758  0.00  0.00     0.157 C 
ATOM     14  C   UNL d   1      43.764  -6.688  16.492  0.00  0.00     0.164 C 
ENDROOT
TORSDOF 0
ENDMDL
MODEL 3
REMARK VINA RESULT:    -6.711      0.673      2.501
REMARK INTER + INTRA:          -6.711
REMARK INTER:                  -6.711
REMARK INTRA:                   0.000
REMARK UNBOUND:                 0.000
REMARK  0 active torsions:
REMARK  status: ('A' for Active; 'I' for Inactive)
ROOT
ATOM      1  O   UNL d   1      44.109  -9.082  16.749  0.00  0.00    -0.265 OA
ATOM      2  O   UNL d   1      41.635 -10.274  14.637  0.00  0.00    -0.246 OA
ATOM      3  N   UNL d   1      41.824  -8.569  14.874  0.00  0.00    -0.286 N 
ATOM      4  N   UNL d   1      43.396  -7.093  16.250  0.00  0.00    -0.338 N 
ATOM      5  N   UNL d   1      42.872  -9.678  15.693  0.00  0.00    -0.269 N 
ATOM      6  N   UNL d   1      42.170  -6.818  15.243  0.00  0.00    -0.223 NA
ATOM      7  C   UNL d   1      43.061  -7.973  15.930  0.00  0.00     0.151 A 
ATOM      8  C   UNL d   1      42.299  -7.802  15.305  0.00  0.00     0.167 A 
ATOM      9  C   UNL d   1      43.347  -8.911  16.124  0.00  0.00     0.282 A 
ATOM     10  C   UNL d   1      42.110  -9.507  15.068  0.00  0.00     0.332 A 
ATOM     11  C   UNL d   1      42.847  -6.381  15.826  0.00  0.00     0.212 A 
ATOM     12  C   UNL d   1      41.062  -8.398  14.249  0.00  0.00     0.163 C 
ATOM     13  C   UNL d   1      44.153  -6.950  16.886  0.00  0.00     0.157 C 
ATOM     14  C   UNL d   1      43.158 -10.616  15.887  0.00  0.00     0.164 C 
ENDROOT
TORSDOF 0
ENDMDL
MODEL 4
REMARK VINA RESULT:    -6.699      1.286      2.942
REMARK INTER + INTRA:          -6.699
REMARK INTER:                  -6.699
REMARK INTRA:                   0.000
REMARK UNBOUND:                 0.000
REMARK  0 active torsions:
REMARK  status: ('A' for Active; 'I' for Inactive)
ROOT
ATOM      1  O   UNL d   1      41.861  -6.747  14.999  0.00  0.00    -0.265 OA
ATOM      2  O   UNL d   1      41.813 -10.186  14.585  0.00  0.00    -0.246 OA
ATOM      3  N   UNL d   1      42.948  -9.460  15.674  0.00  0.00    -0.286 N 
ATOM      4  N   UNL d   1      43.481  -7.069  16.407  0.00  0.00    -0.338 N 
ATOM      5  N   UNL d   1      41.837  -8.466  14.792  0.00  0.00    -0.269 N 
ATOM      6  N   UNL d   1      44.065  -8.525  16.769  0.00  0.00    -0.223 NA
ATOM      7  C   UNL d   1      42.972  -7.741  15.881  0.00  0.00     0.151 A 
ATOM      8  C   UNL d   1      43.334  -8.645  16.106  0.00  0.00     0.167 A 
ATOM      9  C   UNL d   1      42.223  -7.651  15.224  0.00  0.00     0.282 A 
ATOM     10  C   UNL d   1      42.199  -9.371  15.017  0.00  0.00     0.332 A 
ATOM     11  C   UNL d   1      44.155  -7.552  16.955  0.00  0.00     0.212 A 
ATOM     12  C   UNL d   1      43.310 -10.365  15.898  0.00  0.00     0.163 C 
ATOM     13  C   UNL d   1      43.341  -6.079  16.389  0.00  0.00     0.157 C 
ATOM     14  C   UNL d   1      41.088  -8.377  14.135  0.00  0.00     0.164 C 
ENDROOT
TORSDOF 0
ENDMDL
MODEL 5
REMARK VINA RESULT:    -6.688      1.163      2.535
REMARK INTER + INTRA:          -6.688
REMARK INTER:                  -6.688
REMARK INTRA:                   0.000
REMARK UNBOUND:                 0.000
REMARK  0 active torsions:
REMARK  status: ('A' for Active; 'I' for Inactive)
ROOT
ATOM      1  O   UNL d   1      41.396  -8.929  14.520  0.00  0.00    -0.265 OA
ATOM      2  O   UNL d   1      42.838  -6.143  15.989  0.00  0.00    -0.246 OA
ATOM      3  N   UNL d   1      43.468  -7.722  16.323  0.00  0.00    -0.286 N 
ATOM      4  N   UNL d   1      42.881 -10.100  15.587  0.00  0.00    -0.338 N 
ATOM      5  N   UNL d   1      42.117  -7.536  15.255  0.00  0.00    -0.269 N 
ATOM      6  N   UNL d   1      43.993  -9.451  16.554  0.00  0.00    -0.223 NA
ATOM      7  C   UNL d   1      42.747  -9.115  15.588  0.00  0.00     0.151 A 
ATOM      8  C   UNL d   1      43.438  -8.712  16.189  0.00  0.00     0.167 A 
ATOM      9  C   UNL d   1      42.087  -8.527  15.121  0.00  0.00     0.282 A 
ATOM     10  C   UNL d   1      42.808  -7.134  15.856  0.00  0.00     0.332 A 
ATOM     11  C   UNL d   1      43.649 -10.308  16.183  0.00  0.00     0.212 A 
ATOM     12  C   UNL d   1      44.159  -7.319  16.923  0.00  0.00     0.163 C 
ATOM     13  C   UNL d   1      42.338 -10.766  15.076  0.00  0.00     0.157 C 
ATOM     14  C   UNL d   1      41.456  -6.948  14.788  0.00  0.00     0.164 C 
ENDROOT
TORSDOF 0
ENDMDL
