MODEL 1
REMARK VINA RESULT:    -4.316      0.000      0.000
REMARK INTER + INTRA:          -4.442
REMARK INTER:                  -4.442
REMARK INTRA:                   0.000
REMARK UNBOUND:                 0.000
REMARK  1 active torsions:
REMARK  status: ('A' for Active; 'I' for Inactive)
REMARK    1  A    between atoms: O_1  and  N_3 
REMARK       I    between atoms: N_3  and  C_4 
ROOT
ATOM      1  O   UNL d   1     -14.803  11.365  19.371  0.00  0.00    -0.272 OA
ATOM      2  N   UNL d   1     -15.634   9.846  19.406  0.00  0.00    -0.238 N 
ATOM      3  C   UNL d   1     -15.645  10.836  19.266  0.00  0.00     0.236 C 
ATOM      4  C   UNL d   1     -16.498  11.297  19.022  0.00  0.00     0.119 C 
ATOM      5  H   UNL d   1     -16.156   9.518  19.341  0.00  0.00     0.197 HD
ENDROOT
BRANCH   2   6
ATOM      6  O   UNL d   1     -14.781   9.385  19.650  0.00  0.00    -0.287 OA
ATOM      7  H   UNL d   1     -14.731   8.771  19.583  0.00  0.00     0.244 HD
ENDBRANCH   2   6
TORSDOF 1
ENDMDL
MODEL 2
REMARK VINA RESULT:    -4.279     13.129     13.378
REMARK INTER + INTRA:          -4.404
REMARK INTER:                  -4.404
REMARK INTRA:                   0.000
REMARK UNBOUND:                 0.000
REMARK  1 active torsions:
REMARK  status: ('A' for Active; 'I' for Inactive)
REMARK    1  A    between atoms: O_1  and  N_3 
REMARK       I    between atoms: N_3  and  C_4 
ROOT
ATOM      1  O   UNL d   1      -9.997   7.955  32.069  0.00  0.00    -0.272 OA
ATOM      2  N   UNL d   1     -10.421   9.268  31.021  0.00  0.00    -0.238 N 
ATOM      3  C   UNL d   1     -10.673   8.612  31.732  0.00  0.00     0.236 C 
ATOM      4  C   UNL d   1     -11.600   8.612  32.107  0.00  0.00     0.119 C 
ATOM      5  H   UNL d   1     -10.840   9.675  30.813  0.00  0.00     0.197 HD
ENDROOT
BRANCH   2   6
ATOM      6  O   UNL d   1      -9.494   9.268  30.647  0.00  0.00    -0.287 OA
ATOM      7  H   UNL d   1      -9.403   9.378  30.043  0.00  0.00     0.244 HD
ENDBRANCH   2   6
TORSDOF 1
ENDMDL
MODEL 3
REMARK VINA RESULT:    -4.221      1.806      2.112
REMARK INTER + INTRA:          -4.345
REMARK INTER:                  -4.345
REMARK INTRA:                   0.000
REMARK UNBOUND:                 0.000
REMARK  1 active torsions:
REMARK  status: ('A' for Active; 'I' for Inactive)
REMARK    1  A    between atoms: O_1  and  N_3 
REMARK       I    between atoms: N_3  and  C_4 
ROOT
ATOM      1  O   UNL d   1     -15.493  11.231  18.522  0.00  0.00    -0.272 OA
ATOM      2  N   UNL d   1     -16.769  11.770  19.562  0.00  0.00    -0.238 N 
ATOM      3  C   UNL d   1     -15.793  11.656  19.376  0.00  0.00     0.236 C 
ATOM      4  C   UNL d   1     -15.117  11.969  20.043  0.00  0.00     0.119 C 
ATOM      5  H   UNL d   1     -16.955  12.034  20.092  0.00  0.00     0.197 HD
ENDROOT
BRANCH   2   6
ATOM      6  O   UNL d   1     -17.445  11.457  18.895  0.00  0.00    -0.287 OA
ATOM      7  H   UNL d   1     -18.046  11.585  18.980  0.00  0.00     0.244 HD
ENDBRANCH   2   6
TORSDOF 1
ENDMDL
MODEL 4
REMARK VINA RESULT:    -3.934     14.985     15.395
REMARK INTER + INTRA:          -4.049
REMARK INTER:                  -4.049
REMARK INTRA:                   0.000
REMARK UNBOUND:                 0.000
REMARK  1 active torsions:
REMARK  status: ('A' for Active; 'I' for Inactive)
REMARK    1  A    between atoms: O_1  and  N_3 
REMARK       I    between atoms: N_3  and  C_4 
ROOT
ATOM      1  O   UNL d   1     -22.309  22.559  26.310  0.00  0.00    -0.272 OA
ATOM      2  N   UNL d   1     -21.341  23.135  24.994  0.00  0.00    -0.238 N 
ATOM      3  C   UNL d   1     -21.708  23.255  25.917  0.00  0.00     0.236 C 
ATOM      4  C   UNL d   1     -21.474  24.070  26.447  0.00  0.00     0.119 C 
ATOM      5  H   UNL d   1     -20.968  23.567  24.751  0.00  0.00     0.197 HD
ENDROOT
BRANCH   2   6
ATOM      6  O   UNL d   1     -21.575  22.320  24.465  0.00  0.00    -0.287 OA
ATOM      7  H   UNL d   1     -21.667  22.364  23.853  0.00  0.00     0.244 HD
ENDBRANCH   2   6
TORSDOF 1
ENDMDL
MODEL 5
REMARK VINA RESULT:    -3.878     18.287     18.371
REMARK INTER + INTRA:          -3.991
REMARK INTER:                  -3.991
REMARK INTRA:                   0.000
REMARK UNBOUND:                 0.000
REMARK  1 active torsions:
REMARK  status: ('A' for Active; 'I' for Inactive)
REMARK    1  A    between atoms: O_1  and  N_3 
REMARK       I    between atoms: N_3  and  C_4 
ROOT
ATOM      1  O   UNL d   1     -16.294  10.354  38.007  0.00  0.00    -0.272 OA
ATOM      2  N   UNL d   1     -15.815   8.760  37.528  0.00  0.00    -0.238 N 
ATOM      3  C   UNL d   1     -15.643   9.745  37.554  0.00  0.00     0.236 C 
ATOM      4  C   UNL d   1     -14.820  10.120  37.127  0.00  0.00     0.119 C 
ATOM      5  H   UNL d   1     -15.412   8.382  37.248  0.00  0.00     0.197 HD
ENDROOT
BRANCH   2   6
ATOM      6  O   UNL d   1     -16.638   8.385  37.955  0.00  0.00    -0.287 OA
ATOM      7  H   UNL d   1     -16.775   8.527  38.543  0.00  0.00     0.244 HD
ENDBRANCH   2   6
TORSDOF 1
ENDMDL
