MODEL 1
REMARK VINA RESULT:    -0.001      0.000      0.000
REMARK INTER + INTRA:          10.234
REMARK INTER:                   0.000
REMARK INTRA:                  10.234
REMARK UNBOUND:                10.235
REMARK  5 active torsions:
REMARK  status: ('A' for Active; 'I' for Inactive)
REMARK    1  A    between atoms: C_6  and  C_13 
REMARK    2  A    between atoms: C_13  and  C_19 
REMARK    3  A    between atoms: C_19  and  C_24 
REMARK    4  A    between atoms: C_24  and  C_25 
REMARK    5  A    between atoms: C_25  and  C_26 
ROOT
ATOM      1  O   UNL d   1     -16.536  -6.670  -1.584  0.00  0.00    -0.293 OA
ATOM      2  C   UNL d   1     -15.599  -6.584  -7.709  0.00  0.00    -0.036 A 
ATOM      3  C   UNL d   1     -15.585  -5.726  -7.197  0.00  0.00    -0.002 A 
ATOM      4  C   UNL d   1     -15.736  -5.731  -6.208  0.00  0.00    -0.004 A 
ATOM      5  C   UNL d   1     -15.900  -6.595  -5.732  0.00  0.00     0.002 A 
ATOM      6  C   UNL d   1     -15.431  -6.371  -8.665  0.00  0.00    -0.002 A 
ATOM      7  C   UNL d   1     -15.763  -7.448  -7.233  0.00  0.00     0.010 A 
ATOM      8  C   UNL d   1     -15.409  -4.989  -7.840  0.00  0.00     0.006 A 
ATOM      9  C   UNL d   1     -16.058  -6.617  -4.702  0.00  0.00    -0.016 A 
ATOM     10  C   UNL d   1     -15.913  -7.454  -6.244  0.00  0.00     0.007 A 
ATOM     11  C   UNL d   1     -15.314  -5.387  -8.747  0.00  0.00     0.006 A 
ATOM     12  C   UNL d   1     -15.718  -4.829  -5.687  0.00  0.00     0.010 A 
ATOM     13  C   UNL d   1     -15.612  -7.443  -8.222  0.00  0.00     0.016 C 
ATOM     14  C   UNL d   1     -16.045  -5.726  -4.162  0.00  0.00    -0.068 A 
ATOM     15  C   UNL d   1     -15.874  -4.826  -4.657  0.00  0.00     0.035 A 
ATOM     16  C   UNL d   1     -16.234  -7.566  -4.208  0.00  0.00     0.022 A 
ATOM     17  C   UNL d   1     -16.070  -7.471  -5.222  0.00  0.00     0.020 C 
ATOM     18  C   UNL d   1     -16.399  -7.589  -3.135  0.00  0.00     0.084 A 
ATOM     19  C   UNL d   1     -16.207  -5.723  -3.089  0.00  0.00     0.053 A 
ATOM     20  C   UNL d   1     -16.386  -6.661  -2.573  0.00  0.00     0.149 A 
ENDROOT
BRANCH   6  21
ATOM     21  C   UNL d   1     -15.387  -7.031  -9.415  0.00  0.00    -0.014 C 
ATOM     22  C   UNL d   1     -16.229  -7.339  -9.859  0.00  0.00     0.010 C 
BRANCH  21  23
ATOM     23  C   UNL d   1     -14.502  -7.383  -9.721  0.00  0.00     0.005 C 
BRANCH  23  24
ATOM     24  C   UNL d   1     -14.304  -7.455 -10.699  0.00  0.00     0.005 C 
BRANCH  24  25
ATOM     25  C   UNL d   1     -13.358  -7.545 -11.011  0.00  0.00    -0.015 C 
ATOM     26  C   UNL d   1     -12.697  -8.054 -10.461  0.00  0.00     0.010 C 
BRANCH  25  27
ATOM     27  C   UNL d   1     -13.076  -7.125 -11.873  0.00  0.00    -0.019 C 
ATOM     28  C   UNL d   1     -13.351  -7.537 -12.743  0.00  0.00     0.010 C 
ATOM     29  C   UNL d   1     -12.518  -6.295 -11.867  0.00  0.00     0.010 C 
ENDBRANCH  25  27
ENDBRANCH  24  25
ENDBRANCH  23  24
ENDBRANCH  21  23
ENDBRANCH   6  21
TORSDOF 5
ENDMDL
MODEL 2
REMARK VINA RESULT:    -0.001     35.301     36.678
REMARK INTER + INTRA:          10.234
REMARK INTER:                   0.000
REMARK INTRA:                  10.234
REMARK UNBOUND:                10.235
REMARK  5 active torsions:
REMARK  status: ('A' for Active; 'I' for Inactive)
REMARK    1  A    between atoms: C_6  and  C_13 
REMARK    2  A    between atoms: C_13  and  C_19 
REMARK    3  A    between atoms: C_19  and  C_24 
REMARK    4  A    between atoms: C_24  and  C_25 
REMARK    5  A    between atoms: C_25  and  C_26 
ROOT
ATOM      1  O   UNL d   1      15.971  13.590  -0.325  0.00  0.00    -0.293 OA
ATOM      2  C   UNL d   1      11.231  17.577  -0.108  0.00  0.00    -0.036 A 
ATOM      3  C   UNL d   1      11.506  17.092   0.722  0.00  0.00    -0.002 A 
ATOM      4  C   UNL d   1      12.270  16.447   0.696  0.00  0.00    -0.004 A 
ATOM      5  C   UNL d   1      12.759  16.287  -0.162  0.00  0.00     0.002 A 
ATOM      6  C   UNL d   1      10.463  18.164   0.122  0.00  0.00    -0.002 A 
ATOM      7  C   UNL d   1      11.721  17.416  -0.966  0.00  0.00     0.010 A 
ATOM      8  C   UNL d   1      10.905  17.384   1.458  0.00  0.00     0.006 A 
ATOM      9  C   UNL d   1      13.557  15.618  -0.205  0.00  0.00    -0.016 A 
ATOM     10  C   UNL d   1      12.484  16.771  -0.992  0.00  0.00     0.007 A 
ATOM     11  C   UNL d   1      10.261  18.045   1.088  0.00  0.00     0.006 A 
ATOM     12  C   UNL d   1      12.544  15.950   1.569  0.00  0.00     0.010 A 
ATOM     13  C   UNL d   1      10.957  18.061  -0.939  0.00  0.00     0.016 C 
ATOM     14  C   UNL d   1      13.848  15.110   0.656  0.00  0.00    -0.068 A 
ATOM     15  C   UNL d   1      13.339  15.276   1.549  0.00  0.00     0.035 A 
ATOM     16  C   UNL d   1      14.072  15.461  -1.146  0.00  0.00     0.022 A 
ATOM     17  C   UNL d   1      13.276  16.106  -1.031  0.00  0.00     0.020 C 
ATOM     18  C   UNL d   1      14.903  14.764  -1.192  0.00  0.00     0.084 A 
ATOM     19  C   UNL d   1      14.676  14.408   0.636  0.00  0.00     0.053 A 
ATOM     20  C   UNL d   1      15.207  14.235  -0.294  0.00  0.00     0.149 A 
ENDROOT
BRANCH   6  21
ATOM     21  C   UNL d   1       9.977  18.769  -0.509  0.00  0.00    -0.014 C 
ATOM     22  C   UNL d   1      10.335  19.683  -0.700  0.00  0.00     0.010 C 
BRANCH  21  23
ATOM     23  C   UNL d   1       9.133  18.460  -0.949  0.00  0.00     0.005 C 
BRANCH  23  24
ATOM     24  C   UNL d   1       8.346  19.073  -1.004  0.00  0.00     0.005 C 
BRANCH  24  25
ATOM     25  C   UNL d   1       7.436  18.702  -1.191  0.00  0.00    -0.015 C 
ATOM     26  C   UNL d   1       7.333  17.912  -1.795  0.00  0.00     0.010 C 
BRANCH  25  27
ATOM     27  C   UNL d   1       6.630  19.121  -0.774  0.00  0.00    -0.019 C 
ATOM     28  C   UNL d   1       6.289  19.997  -1.117  0.00  0.00     0.010 C 
ATOM     29  C   UNL d   1       6.165  18.666  -0.014  0.00  0.00     0.010 C 
ENDBRANCH  25  27
ENDBRANCH  24  25
ENDBRANCH  23  24
ENDBRANCH  21  23
ENDBRANCH   6  21
TORSDOF 5
ENDMDL
MODEL 3
REMARK VINA RESULT:    -0.000     30.282     33.112
REMARK INTER + INTRA:          10.235
REMARK INTER:                   0.000
REMARK INTRA:                  10.235
REMARK UNBOUND:                10.235
REMARK  5 active torsions:
REMARK  status: ('A' for Active; 'I' for Inactive)
REMARK    1  A    between atoms: C_6  and  C_13 
REMARK    2  A    between atoms: C_13  and  C_19 
REMARK    3  A    between atoms: C_19  and  C_24 
REMARK    4  A    between atoms: C_24  and  C_25 
REMARK    5  A    between atoms: C_25  and  C_26 
ROOT
ATOM      1  O   UNL d   1       2.491  -0.320 -35.693  0.00  0.00    -0.293 OA
ATOM      2  C   UNL d   1       1.065   5.188 -33.236  0.00  0.00    -0.036 A 
ATOM      3  C   UNL d   1       1.996   4.834 -33.144  0.00  0.00    -0.002 A 
ATOM      4  C   UNL d   1       2.234   3.946 -33.538  0.00  0.00    -0.004 A 
ATOM      5  C   UNL d   1       1.541   3.412 -34.023  0.00  0.00     0.002 A 
ATOM      6  C   UNL d   1       1.030   6.072 -32.783  0.00  0.00    -0.002 A 
ATOM      7  C   UNL d   1       0.372   4.654 -33.721  0.00  0.00     0.010 A 
ATOM      8  C   UNL d   1       2.528   5.502 -32.636  0.00  0.00     0.006 A 
ATOM      9  C   UNL d   1       1.774   2.486 -34.438  0.00  0.00    -0.016 A 
ATOM     10  C   UNL d   1       0.611   3.766 -34.114  0.00  0.00     0.007 A 
ATOM     11  C   UNL d   1       1.932   6.267 -32.413  0.00  0.00     0.006 A 
ATOM     12  C   UNL d   1       3.208   3.590 -33.434  0.00  0.00     0.010 A 
ATOM     13  C   UNL d   1       0.134   5.542 -33.327  0.00  0.00     0.016 C 
ATOM     14  C   UNL d   1       2.742   2.110 -34.347  0.00  0.00    -0.068 A 
ATOM     15  C   UNL d   1       3.464   2.666 -33.842  0.00  0.00     0.035 A 
ATOM     16  C   UNL d   1       1.006   1.925 -34.960  0.00  0.00     0.022 A 
ATOM     17  C   UNL d   1       0.846   2.847 -34.526  0.00  0.00     0.020 C 
ATOM     18  C   UNL d   1       1.249   0.960 -35.393  0.00  0.00     0.084 A 
ATOM     19  C   UNL d   1       3.008   1.148 -34.771  0.00  0.00     0.053 A 
ATOM     20  C   UNL d   1       2.256   0.569 -35.298  0.00  0.00     0.149 A 
ENDROOT
BRANCH   6  21
ATOM     21  C   UNL d   1       0.227   6.664 -32.713  0.00  0.00    -0.014 C 
ATOM     22  C   UNL d   1      -0.004   7.284 -33.462  0.00  0.00     0.010 C 
BRANCH  21  23
ATOM     23  C   UNL d   1      -0.345   6.635 -31.892  0.00  0.00     0.005 C 
BRANCH  23  24
ATOM     24  C   UNL d   1      -0.664   7.487 -31.476  0.00  0.00     0.005 C 
BRANCH  24  25
ATOM     25  C   UNL d   1      -0.999   7.487 -30.533  0.00  0.00    -0.015 C 
ATOM     26  C   UNL d   1      -1.493   6.693 -30.179  0.00  0.00     0.010 C 
BRANCH  25  27
ATOM     27  C   UNL d   1      -0.838   8.280 -29.947  0.00  0.00    -0.019 C 
ATOM     28  C   UNL d   1      -1.369   9.117 -30.083  0.00  0.00     0.010 C 
ATOM     29  C   UNL d   1      -0.148   8.237 -29.223  0.00  0.00     0.010 C 
ENDBRANCH  25  27
ENDBRANCH  24  25
ENDBRANCH  23  24
ENDBRANCH  21  23
ENDBRANCH   6  21
TORSDOF 5
ENDMDL
MODEL 4
REMARK VINA RESULT:    -0.000     51.091     54.046
REMARK INTER + INTRA:          10.235
REMARK INTER:                   0.000
REMARK INTRA:                  10.235
REMARK UNBOUND:                10.235
REMARK  5 active torsions:
REMARK  status: ('A' for Active; 'I' for Inactive)
REMARK    1  A    between atoms: C_6  and  C_13 
REMARK    2  A    between atoms: C_13  and  C_19 
REMARK    3  A    between atoms: C_19  and  C_24 
REMARK    4  A    between atoms: C_24  and  C_25 
REMARK    5  A    between atoms: C_25  and  C_26 
ROOT
ATOM      1  O   UNL d   1     -21.325  38.043  27.516  0.00  0.00    -0.293 OA
ATOM      2  C   UNL d   1     -20.376  32.191  29.321  0.00  0.00    -0.036 A 
ATOM      3  C   UNL d   1     -20.293  32.428  28.353  0.00  0.00    -0.002 A 
ATOM      4  C   UNL d   1     -20.445  33.370  28.053  0.00  0.00    -0.004 A 
ATOM      5  C   UNL d   1     -20.679  34.075  28.722  0.00  0.00     0.002 A 
ATOM      6  C   UNL d   1     -20.191  31.219  29.413  0.00  0.00    -0.002 A 
ATOM      7  C   UNL d   1     -20.611  32.897  29.989  0.00  0.00     0.010 A 
ATOM      8  C   UNL d   1     -20.057  31.600  27.856  0.00  0.00     0.006 A 
ATOM      9  C   UNL d   1     -20.840  35.061  28.426  0.00  0.00    -0.016 A 
ATOM     10  C   UNL d   1     -20.762  33.839  29.690  0.00  0.00     0.007 A 
ATOM     11  C   UNL d   1     -19.994  30.854  28.510  0.00  0.00     0.006 A 
ATOM     12  C   UNL d   1     -20.355  33.601  27.041  0.00  0.00     0.010 A 
ATOM     13  C   UNL d   1     -20.459  31.954  30.289  0.00  0.00     0.016 C 
ATOM     14  C   UNL d   1     -20.756  35.315  27.419  0.00  0.00    -0.068 A 
ATOM     15  C   UNL d   1     -20.511  34.580  26.722  0.00  0.00     0.035 A 
ATOM     16  C   UNL d   1     -21.094  35.809  29.169  0.00  0.00     0.022 A 
ATOM     17  C   UNL d   1     -20.921  34.816  29.392  0.00  0.00     0.020 C 
ATOM     18  C   UNL d   1     -21.261  36.836  28.860  0.00  0.00     0.084 A 
ATOM     19  C   UNL d   1     -20.918  36.334  27.086  0.00  0.00     0.053 A 
ATOM     20  C   UNL d   1     -21.173  37.100  27.812  0.00  0.00     0.149 A 
ENDROOT
BRANCH   6  21
ATOM     21  C   UNL d   1     -20.200  30.698  30.267  0.00  0.00    -0.014 C 
ATOM     22  C   UNL d   1     -19.390  30.685  30.853  0.00  0.00     0.010 C 
BRANCH  21  23
ATOM     23  C   UNL d   1     -21.020  30.191  30.535  0.00  0.00     0.005 C 
BRANCH  23  24
ATOM     24  C   UNL d   1     -20.937  29.261  30.893  0.00  0.00     0.005 C 
BRANCH  24  25
ATOM     25  C   UNL d   1     -21.736  28.660  30.910  0.00  0.00    -0.015 C 
ATOM     26  C   UNL d   1     -22.645  29.041  31.078  0.00  0.00     0.010 C 
BRANCH  25  27
ATOM     27  C   UNL d   1     -21.625  27.678  30.761  0.00  0.00    -0.019 C 
ATOM     28  C   UNL d   1     -21.238  27.103  31.482  0.00  0.00     0.010 C 
ATOM     29  C   UNL d   1     -21.900  27.270  29.890  0.00  0.00     0.010 C 
ENDBRANCH  25  27
ENDBRANCH  24  25
ENDBRANCH  23  24
ENDBRANCH  21  23
ENDBRANCH   6  21
TORSDOF 5
ENDMDL
MODEL 5
REMARK VINA RESULT:    -0.000     65.507     67.104
REMARK INTER + INTRA:          10.235
REMARK INTER:                   0.000
REMARK INTRA:                  10.235
REMARK UNBOUND:                10.235
REMARK  5 active torsions:
REMARK  status: ('A' for Active; 'I' for Inactive)
REMARK    1  A    between atoms: C_6  and  C_13 
REMARK    2  A    between atoms: C_13  and  C_19 
REMARK    3  A    between atoms: C_19  and  C_24 
REMARK    4  A    between atoms: C_24  and  C_25 
REMARK    5  A    between atoms: C_25  and  C_26 
ROOT
ATOM      1  O   UNL d   1      34.336  30.335  -1.309  0.00  0.00    -0.293 OA
ATOM      2  C   UNL d   1      36.553  34.838   2.326  0.00  0.00    -0.036 A 
ATOM      3  C   UNL d   1      36.817  34.808   1.362  0.00  0.00    -0.002 A 
ATOM      4  C   UNL d   1      36.464  34.085   0.769  0.00  0.00    -0.004 A 
ATOM      5  C   UNL d   1      35.846  33.391   1.140  0.00  0.00     0.002 A 
ATOM      6  C   UNL d   1      37.003  35.621   2.740  0.00  0.00    -0.002 A 
ATOM      7  C   UNL d   1      35.936  34.144   2.697  0.00  0.00     0.010 A 
ATOM      8  C   UNL d   1      37.428  35.573   1.189  0.00  0.00     0.006 A 
ATOM      9  C   UNL d   1      35.470  32.632   0.534  0.00  0.00    -0.016 A 
ATOM     10  C   UNL d   1      35.582  33.421   2.104  0.00  0.00     0.007 A 
ATOM     11  C   UNL d   1      37.542  36.075   2.040  0.00  0.00     0.006 A 
ATOM     12  C   UNL d   1      36.747  34.067  -0.234  0.00  0.00     0.010 A 
ATOM     13  C   UNL d   1      36.289  34.868   3.290  0.00  0.00     0.016 C 
ATOM     14  C   UNL d   1      35.741  32.594  -0.471  0.00  0.00    -0.068 A 
ATOM     15  C   UNL d   1      36.383  33.317  -0.858  0.00  0.00     0.035 A 
ATOM     16  C   UNL d   1      34.802  31.890   0.959  0.00  0.00     0.022 A 
ATOM     17  C   UNL d   1      35.211  32.668   1.499  0.00  0.00     0.020 C 
ATOM     18  C   UNL d   1      34.410  31.099   0.328  0.00  0.00     0.084 A 
ATOM     19  C   UNL d   1      35.362  31.813  -1.122  0.00  0.00     0.053 A 
ATOM     20  C   UNL d   1      34.692  31.060  -0.719  0.00  0.00     0.149 A 
ENDROOT
BRANCH   6  21
ATOM     21  C   UNL d   1      36.926  35.904   3.697  0.00  0.00    -0.014 C 
ATOM     22  C   UNL d   1      36.156  36.469   3.991  0.00  0.00     0.010 C 
BRANCH  21  23
ATOM     23  C   UNL d   1      37.621  35.621   4.359  0.00  0.00     0.005 C 
BRANCH  23  24
ATOM     24  C   UNL d   1      37.981  36.282   5.018  0.00  0.00     0.005 C 
BRANCH  24  25
ATOM     25  C   UNL d   1      38.841  36.095   5.493  0.00  0.00    -0.015 C 
ATOM     26  C   UNL d   1      39.082  35.157   5.741  0.00  0.00     0.010 C 
BRANCH  25  27
ATOM     27  C   UNL d   1      39.459  36.847   5.720  0.00  0.00    -0.019 C 
ATOM     28  C   UNL d   1      39.235  37.468   6.472  0.00  0.00     0.010 C 
ATOM     29  C   UNL d   1      40.301  36.979   5.196  0.00  0.00     0.010 C 
ENDBRANCH  25  27
ENDBRANCH  24  25
ENDBRANCH  23  24
ENDBRANCH  21  23
ENDBRANCH   6  21
TORSDOF 5
ENDMDL
