MODEL 1
REMARK VINA RESULT:    -9.255      0.000      0.000
REMARK INTER + INTRA:          -6.498
REMARK INTER:                 -11.598
REMARK INTRA:                   5.100
REMARK UNBOUND:                 5.462
REMARK  6 active torsions:
REMARK  status: ('A' for Active; 'I' for Inactive)
REMARK    1  A    between atoms: O_2  and  C_15 
REMARK    2  A    between atoms: O_3  and  C_17 
REMARK    3  A    between atoms: O_4  and  C_11 
REMARK    4  A    between atoms: O_6  and  C_22 
REMARK    5  A    between atoms: O_7  and  C_20 
REMARK    6  A    between atoms: C_10  and  C_13 
ROOT
ATOM      1  O   UNL d   1      30.909   9.249 -16.752  0.00  0.00    -0.309 OA
ATOM      2  O   UNL d   1      32.792   7.065 -15.699  0.00  0.00    -0.287 OA
ATOM      3  C   UNL d   1      31.784   8.490 -15.405  0.00  0.00     0.084 A 
ATOM      4  C   UNL d   1      31.170   9.203 -15.744  0.00  0.00     0.096 A 
ATOM      5  C   UNL d   1      31.292   8.542 -17.414  0.00  0.00     0.090 A 
ATOM      6  C   UNL d   1      32.026   8.458 -14.435  0.00  0.00     0.119 A 
ATOM      7  C   UNL d   1      32.179   7.774 -16.050  0.00  0.00     0.190 A 
ATOM      8  C   UNL d   1      30.798   9.884 -15.114  0.00  0.00     0.078 A 
ATOM      9  C   UNL d   1      31.654   9.140 -13.805  0.00  0.00     0.136 A 
ATOM     10  C   UNL d   1      31.932   7.800 -17.061  0.00  0.00     0.094 A 
ATOM     11  C   UNL d   1      31.040   9.852 -14.144  0.00  0.00     0.107 A 
ENDROOT
BRANCH   5  12
ATOM     12  C   UNL d   1      31.048   8.577 -18.383  0.00  0.00     0.001 A 
ATOM     13  C   UNL d   1      30.137   8.290 -18.680  0.00  0.00     0.053 A 
ATOM     14  C   UNL d   1      29.892   8.324 -19.649  0.00  0.00     0.099 A 
ATOM     15  C   UNL d   1      30.559   8.645 -20.321  0.00  0.00     0.101 A 
ATOM     16  C   UNL d   1      31.470   8.932 -20.025  0.00  0.00     0.040 A 
ATOM     17  C   UNL d   1      31.714   8.898 -19.056  0.00  0.00     0.017 A 
BRANCH  14  18
ATOM     18  O   UNL d   1      28.982   8.037 -19.946  0.00  0.00    -0.358 OA
ATOM     19  H   UNL d   1      28.912   7.515 -20.272  0.00  0.00     0.217 HD
ENDBRANCH  14  18
BRANCH  15  20
ATOM     20  O   UNL d   1      30.315   8.680 -21.290  0.00  0.00    -0.353 OA
ATOM     21  C   UNL d   1      30.743   9.355 -21.891  0.00  0.00     0.210 C 
ENDBRANCH  15  20
ENDBRANCH   5  12
BRANCH   6  22
ATOM     22  O   UNL d   1      32.640   7.745 -14.096  0.00  0.00    -0.357 OA
ATOM     23  H   UNL d   1      32.524   7.150 -14.224  0.00  0.00     0.218 HD
ENDBRANCH   6  22
BRANCH  11  24
ATOM     24  O   UNL d   1      30.668  10.534 -13.513  0.00  0.00    -0.353 OA
ATOM     25  C   UNL d   1      30.381  11.428 -13.856  0.00  0.00     0.210 C 
ENDBRANCH  11  24
BRANCH   9  26
ATOM     26  O   UNL d   1      31.896   9.108 -12.835  0.00  0.00    -0.351 OA
ATOM     27  C   UNL d   1      31.412   8.487 -12.219  0.00  0.00     0.210 C 
ENDBRANCH   9  26
TORSDOF 6
ENDMDL
MODEL 2
REMARK VINA RESULT:    -9.016     19.661     21.804
REMARK INTER + INTRA:          -6.189
REMARK INTER:                 -11.197
REMARK INTRA:                   5.008
REMARK UNBOUND:                 5.462
REMARK  6 active torsions:
REMARK  status: ('A' for Active; 'I' for Inactive)
REMARK    1  A    between atoms: O_2  and  C_15 
REMARK    2  A    between atoms: O_3  and  C_17 
REMARK    3  A    between atoms: O_4  and  C_11 
REMARK    4  A    between atoms: O_6  and  C_22 
REMARK    5  A    between atoms: O_7  and  C_20 
REMARK    6  A    between atoms: C_10  and  C_13 
ROOT
ATOM      1  O   UNL d   1      40.219  -9.756 -14.745  0.00  0.00    -0.309 OA
ATOM      2  O   UNL d   1      39.071 -12.352 -15.911  0.00  0.00    -0.287 OA
ATOM      3  C   UNL d   1      39.737 -10.731 -16.150  0.00  0.00     0.084 A 
ATOM      4  C   UNL d   1      40.112  -9.883 -15.773  0.00  0.00     0.096 A 
ATOM      5  C   UNL d   1      39.933 -10.522 -14.100  0.00  0.00     0.090 A 
ATOM      6  C   UNL d   1      39.640 -10.838 -17.139  0.00  0.00     0.119 A 
ATOM      7  C   UNL d   1      39.444 -11.509 -15.523  0.00  0.00     0.190 A 
ATOM      8  C   UNL d   1      40.389  -9.144 -16.386  0.00  0.00     0.078 A 
ATOM      9  C   UNL d   1      39.917 -10.099 -17.752  0.00  0.00     0.136 A 
ATOM     10  C   UNL d   1      39.542 -11.405 -14.492  0.00  0.00     0.094 A 
ATOM     11  C   UNL d   1      40.292  -9.251 -17.376  0.00  0.00     0.107 A 
ENDROOT
BRANCH   5  12
ATOM     12  C   UNL d   1      40.031 -10.411 -13.111  0.00  0.00     0.001 A 
ATOM     13  C   UNL d   1      39.288 -10.007 -12.577  0.00  0.00     0.053 A 
ATOM     14  C   UNL d   1      39.386  -9.896 -11.588  0.00  0.00     0.099 A 
ATOM     15  C   UNL d   1      40.228 -10.189 -11.133  0.00  0.00     0.101 A 
ATOM     16  C   UNL d   1      40.971 -10.593 -11.668  0.00  0.00     0.040 A 
ATOM     17  C   UNL d   1      40.872 -10.704 -12.656  0.00  0.00     0.017 A 
BRANCH  14  18
ATOM     18  O   UNL d   1      38.644  -9.492 -11.053  0.00  0.00    -0.358 OA
ATOM     19  H   UNL d   1      38.173  -9.845 -10.861  0.00  0.00     0.217 HD
ENDBRANCH  14  18
BRANCH  15  20
ATOM     20  O   UNL d   1      40.326 -10.078 -10.145  0.00  0.00    -0.353 OA
ATOM     21  C   UNL d   1      41.205 -10.262  -9.706  0.00  0.00     0.210 C 
ENDBRANCH  15  20
ENDBRANCH   5  12
BRANCH   6  22
ATOM     22  O   UNL d   1      39.265 -11.686 -17.515  0.00  0.00    -0.357 OA
ATOM     23  H   UNL d   1      38.818 -11.989 -17.211  0.00  0.00     0.218 HD
ENDBRANCH   6  22
BRANCH  11  24
ATOM     24  O   UNL d   1      40.569  -8.512 -17.989  0.00  0.00    -0.353 OA
ATOM     25  C   UNL d   1      41.106  -7.745 -17.637  0.00  0.00     0.210 C 
ENDBRANCH  11  24
BRANCH   9  26
ATOM     26  O   UNL d   1      39.820 -10.206 -18.742  0.00  0.00    -0.351 OA
ATOM     27  C   UNL d   1      38.935 -10.044 -19.177  0.00  0.00     0.210 C 
ENDBRANCH   9  26
TORSDOF 6
ENDMDL
MODEL 3
REMARK VINA RESULT:    -8.916     19.359     21.638
REMARK INTER + INTRA:          -6.060
REMARK INTER:                 -11.455
REMARK INTRA:                   5.395
REMARK UNBOUND:                 5.462
REMARK  6 active torsions:
REMARK  status: ('A' for Active; 'I' for Inactive)
REMARK    1  A    between atoms: O_2  and  C_15 
REMARK    2  A    between atoms: O_3  and  C_17 
REMARK    3  A    between atoms: O_4  and  C_11 
REMARK    4  A    between atoms: O_6  and  C_22 
REMARK    5  A    between atoms: O_7  and  C_20 
REMARK    6  A    between atoms: C_10  and  C_13 
ROOT
ATOM      1  O   UNL d   1      40.099 -10.359 -14.344  0.00  0.00    -0.309 OA
ATOM      2  O   UNL d   1      38.462  -7.771 -14.561  0.00  0.00    -0.287 OA
ATOM      3  C   UNL d   1      39.139  -9.222 -15.315  0.00  0.00     0.084 A 
ATOM      4  C   UNL d   1      39.672 -10.066 -15.248  0.00  0.00     0.096 A 
ATOM      5  C   UNL d   1      39.969  -9.764 -13.498  0.00  0.00     0.090 A 
ATOM      6  C   UNL d   1      38.735  -8.954 -16.190  0.00  0.00     0.119 A 
ATOM      7  C   UNL d   1      38.997  -8.613 -14.482  0.00  0.00     0.190 A 
ATOM      8  C   UNL d   1      39.800 -10.641 -16.056  0.00  0.00     0.078 A 
ATOM      9  C   UNL d   1      38.864  -9.529 -16.997  0.00  0.00     0.136 A 
ATOM     10  C   UNL d   1      39.414  -8.885 -13.568  0.00  0.00     0.094 A 
ATOM     11  C   UNL d   1      39.397 -10.373 -16.930  0.00  0.00     0.107 A 
ENDROOT
BRANCH   5  12
ATOM     12  C   UNL d   1      40.374 -10.035 -12.626  0.00  0.00     0.001 A 
ATOM     13  C   UNL d   1      41.174 -10.635 -12.611  0.00  0.00     0.053 A 
ATOM     14  C   UNL d   1      41.580 -10.907 -11.738  0.00  0.00     0.099 A 
ATOM     15  C   UNL d   1      41.185 -10.578 -10.880  0.00  0.00     0.101 A 
ATOM     16  C   UNL d   1      40.385  -9.979 -10.895  0.00  0.00     0.040 A 
ATOM     17  C   UNL d   1      39.980  -9.707 -11.767  0.00  0.00     0.017 A 
BRANCH  14  18
ATOM     18  O   UNL d   1      42.380 -11.507 -11.722  0.00  0.00    -0.358 OA
ATOM     19  H   UNL d   1      42.569 -11.786 -12.242  0.00  0.00     0.217 HD
ENDBRANCH  14  18
BRANCH  15  20
ATOM     20  O   UNL d   1      41.590 -10.850 -10.007  0.00  0.00    -0.353 OA
ATOM     21  C   UNL d   1      41.509 -10.252  -9.210  0.00  0.00     0.210 C 
ENDBRANCH  15  20
ENDBRANCH   5  12
BRANCH   6  22
ATOM     22  O   UNL d   1      38.203  -8.110 -16.257  0.00  0.00    -0.357 OA
ATOM     23  H   UNL d   1      38.303  -7.717 -16.725  0.00  0.00     0.218 HD
ENDBRANCH   6  22
BRANCH  11  24
ATOM     24  O   UNL d   1      39.525 -10.948 -17.738  0.00  0.00    -0.353 OA
ATOM     25  C   UNL d   1      39.921 -11.862 -17.643  0.00  0.00     0.210 C 
ENDBRANCH  11  24
BRANCH   9  26
ATOM     26  O   UNL d   1      38.460  -9.261 -17.872  0.00  0.00    -0.351 OA
ATOM     27  C   UNL d   1      38.920  -8.585 -18.448  0.00  0.00     0.210 C 
ENDBRANCH   9  26
TORSDOF 6
ENDMDL
MODEL 4
REMARK VINA RESULT:    -8.915     17.080     18.881
REMARK INTER + INTRA:          -6.058
REMARK INTER:                 -11.113
REMARK INTRA:                   5.055
REMARK UNBOUND:                 5.462
REMARK  6 active torsions:
REMARK  status: ('A' for Active; 'I' for Inactive)
REMARK    1  A    between atoms: O_2  and  C_15 
REMARK    2  A    between atoms: O_3  and  C_17 
REMARK    3  A    between atoms: O_4  and  C_11 
REMARK    4  A    between atoms: O_6  and  C_22 
REMARK    5  A    between atoms: O_7  and  C_20 
REMARK    6  A    between atoms: C_10  and  C_13 
ROOT
ATOM      1  O   UNL d   1      40.126  -7.237 -17.131  0.00  0.00    -0.309 OA
ATOM      2  O   UNL d   1      40.976  -5.750 -19.678  0.00  0.00    -0.287 OA
ATOM      3  C   UNL d   1      40.183  -5.747 -18.096  0.00  0.00     0.084 A 
ATOM      4  C   UNL d   1      39.904  -6.228 -17.265  0.00  0.00     0.096 A 
ATOM      5  C   UNL d   1      40.646  -7.751 -17.872  0.00  0.00     0.090 A 
ATOM      6  C   UNL d   1      39.962  -4.778 -18.211  0.00  0.00     0.119 A 
ATOM      7  C   UNL d   1      40.703  -6.242 -18.850  0.00  0.00     0.190 A 
ATOM      8  C   UNL d   1      39.405  -5.740 -16.548  0.00  0.00     0.078 A 
ATOM      9  C   UNL d   1      39.464  -4.290 -17.494  0.00  0.00     0.136 A 
ATOM     10  C   UNL d   1      40.936  -7.250 -18.739  0.00  0.00     0.094 A 
ATOM     11  C   UNL d   1      39.185  -4.771 -16.663  0.00  0.00     0.107 A 
ENDROOT
BRANCH   5  12
ATOM     12  C   UNL d   1      40.864  -8.720 -17.754  0.00  0.00     0.001 A 
ATOM     13  C   UNL d   1      41.813  -9.004 -17.612  0.00  0.00     0.053 A 
ATOM     14  C   UNL d   1      42.032  -9.973 -17.494  0.00  0.00     0.099 A 
ATOM     15  C   UNL d   1      41.303 -10.657 -17.518  0.00  0.00     0.101 A 
ATOM     16  C   UNL d   1      40.355 -10.372 -17.660  0.00  0.00     0.040 A 
ATOM     17  C   UNL d   1      40.136  -9.404 -17.778  0.00  0.00     0.017 A 
BRANCH  14  18
ATOM     18  O   UNL d   1      42.980 -10.258 -17.352  0.00  0.00    -0.358 OA
ATOM     19  H   UNL d   1      43.295 -10.053 -16.860  0.00  0.00     0.217 HD
ENDBRANCH  14  18
BRANCH  15  20
ATOM     20  O   UNL d   1      41.521 -11.625 -17.400  0.00  0.00    -0.353 OA
ATOM     21  C   UNL d   1      40.802 -12.274 -17.153  0.00  0.00     0.210 C 
ENDBRANCH  15  20
ENDBRANCH   5  12
BRANCH   6  22
ATOM     22  O   UNL d   1      40.241  -4.297 -19.042  0.00  0.00    -0.357 OA
ATOM     23  H   UNL d   1      40.531  -3.751 -19.002  0.00  0.00     0.218 HD
ENDBRANCH   6  22
BRANCH  11  24
ATOM     24  O   UNL d   1      38.686  -4.284 -15.947  0.00  0.00    -0.353 OA
ATOM     25  C   UNL d   1      38.493  -4.736 -15.076  0.00  0.00     0.210 C 
ENDBRANCH  11  24
BRANCH   9  26
ATOM     26  O   UNL d   1      39.243  -3.322 -17.609  0.00  0.00    -0.351 OA
ATOM     27  C   UNL d   1      38.445  -3.051 -18.147  0.00  0.00     0.210 C 
ENDBRANCH   9  26
TORSDOF 6
ENDMDL
MODEL 5
REMARK VINA RESULT:    -8.885     31.507     33.415
REMARK INTER + INTRA:          -6.020
REMARK INTER:                 -11.315
REMARK INTRA:                   5.295
REMARK UNBOUND:                 5.462
REMARK  6 active torsions:
REMARK  status: ('A' for Active; 'I' for Inactive)
REMARK    1  A    between atoms: O_2  and  C_15 
REMARK    2  A    between atoms: O_3  and  C_17 
REMARK    3  A    between atoms: O_4  and  C_11 
REMARK    4  A    between atoms: O_6  and  C_22 
REMARK    5  A    between atoms: O_7  and  C_20 
REMARK    6  A    between atoms: C_10  and  C_13 
ROOT
ATOM      1  O   UNL d   1      25.102 -22.124 -26.688  0.00  0.00    -0.309 OA
ATOM      2  O   UNL d   1      27.833 -22.143 -28.089  0.00  0.00    -0.287 OA
ATOM      3  C   UNL d   1      26.138 -22.651 -28.031  0.00  0.00     0.084 A 
ATOM      4  C   UNL d   1      25.247 -22.647 -27.578  0.00  0.00     0.096 A 
ATOM      5  C   UNL d   1      25.896 -21.598 -26.266  0.00  0.00     0.090 A 
ATOM      6  C   UNL d   1      26.263 -23.157 -28.884  0.00  0.00     0.119 A 
ATOM      7  C   UNL d   1      26.946 -22.132 -27.627  0.00  0.00     0.190 A 
ATOM      8  C   UNL d   1      24.481 -23.149 -27.977  0.00  0.00     0.078 A 
ATOM      9  C   UNL d   1      25.496 -23.660 -29.284  0.00  0.00     0.136 A 
ATOM     10  C   UNL d   1      26.825 -21.602 -26.739  0.00  0.00     0.094 A 
ATOM     11  C   UNL d   1      24.605 -23.656 -28.830  0.00  0.00     0.107 A 
ENDROOT
BRANCH   5  12
ATOM     12  C   UNL d   1      25.768 -21.092 -25.413  0.00  0.00     0.001 A 
ATOM     13  C   UNL d   1      24.933 -20.562 -25.267  0.00  0.00     0.053 A 
ATOM     14  C   UNL d   1      24.804 -20.056 -24.414  0.00  0.00     0.099 A 
ATOM     15  C   UNL d   1      25.512 -20.081 -23.707  0.00  0.00     0.101 A 
ATOM     16  C   UNL d   1      26.347 -20.611 -23.853  0.00  0.00     0.040 A 
ATOM     17  C   UNL d   1      26.475 -21.116 -24.706  0.00  0.00     0.017 A 
BRANCH  14  18
ATOM     18  O   UNL d   1      23.969 -19.526 -24.266  0.00  0.00    -0.358 OA
ATOM     19  H   UNL d   1      23.418 -19.770 -24.407  0.00  0.00     0.217 HD
ENDBRANCH  14  18
BRANCH  15  20
ATOM     20  O   UNL d   1      25.384 -19.576 -22.854  0.00  0.00    -0.353 OA
ATOM     21  C   UNL d   1      26.178 -19.268 -22.330  0.00  0.00     0.210 C 
ENDBRANCH  15  20
ENDBRANCH   5  12
BRANCH   6  22
ATOM     22  O   UNL d   1      27.154 -23.161 -29.338  0.00  0.00    -0.357 OA
ATOM     23  H   UNL d   1      27.260 -23.550 -29.809  0.00  0.00     0.218 HD
ENDBRANCH   6  22
BRANCH  11  24
ATOM     24  O   UNL d   1      23.838 -24.158 -29.230  0.00  0.00    -0.353 OA
ATOM     25  C   UNL d   1      22.900 -23.857 -29.060  0.00  0.00     0.210 C 
ENDBRANCH  11  24
BRANCH   9  26
ATOM     26  O   UNL d   1      25.621 -24.166 -30.137  0.00  0.00    -0.351 OA
ATOM     27  C   UNL d   1      26.047 -25.071 -30.124  0.00  0.00     0.210 C 
ENDBRANCH   9  26
TORSDOF 6
ENDMDL
