MODEL 1
REMARK VINA RESULT:    -6.266      0.000      0.000
REMARK INTER + INTRA:          -6.266
REMARK INTER:                  -6.266
REMARK INTRA:                   0.000
REMARK UNBOUND:                 0.000
REMARK  0 active torsions:
REMARK  status: ('A' for Active; 'I' for Inactive)
ROOT
ATOM      1  O   UNL d   1      37.837  -3.966 -15.879  0.00  0.00    -0.265 OA
ATOM      2  O   UNL d   1      40.714  -2.341 -14.839  0.00  0.00    -0.246 OA
ATOM      3  N   UNL d   1      39.402  -1.433 -15.513  0.00  0.00    -0.286 N 
ATOM      4  N   UNL d   1      37.088  -2.007 -16.438  0.00  0.00    -0.338 N 
ATOM      5  N   UNL d   1      39.275  -3.153 -15.359  0.00  0.00    -0.269 N 
ATOM      6  N   UNL d   1      37.928  -0.648 -16.242  0.00  0.00    -0.223 NA
ATOM      7  C   UNL d   1      37.964  -2.245 -16.033  0.00  0.00     0.151 A 
ATOM      8  C   UNL d   1      38.486  -1.401 -15.911  0.00  0.00     0.167 A 
ATOM      9  C   UNL d   1      38.359  -3.121 -15.757  0.00  0.00     0.282 A 
ATOM     10  C   UNL d   1      39.797  -2.309 -15.237  0.00  0.00     0.332 A 
ATOM     11  C   UNL d   1      37.066  -1.021 -16.568  0.00  0.00     0.212 A 
ATOM     12  C   UNL d   1      39.924  -0.588 -15.391  0.00  0.00     0.163 C 
ATOM     13  C   UNL d   1      36.357  -2.646 -16.675  0.00  0.00     0.157 C 
ATOM     14  C   UNL d   1      39.670  -4.029 -15.082  0.00  0.00     0.164 C 
ENDROOT
TORSDOF 0
ENDMDL
MODEL 2
REMARK VINA RESULT:    -6.248      1.170      2.683
REMARK INTER + INTRA:          -6.248
REMARK INTER:                  -6.248
REMARK INTRA:                   0.000
REMARK UNBOUND:                 0.000
REMARK  0 active torsions:
REMARK  status: ('A' for Active; 'I' for Inactive)
ROOT
ATOM      1  O   UNL d   1      39.847  -3.688 -15.110  0.00  0.00    -0.265 OA
ATOM      2  O   UNL d   1      37.314  -2.862 -17.324  0.00  0.00    -0.246 OA
ATOM      3  N   UNL d   1      38.321  -1.620 -16.658  0.00  0.00    -0.286 N 
ATOM      4  N   UNL d   1      40.293  -1.565 -15.030  0.00  0.00    -0.338 N 
ATOM      5  N   UNL d   1      38.580  -3.275 -16.217  0.00  0.00    -0.269 N 
ATOM      6  N   UNL d   1      39.474  -0.455 -15.861  0.00  0.00    -0.223 NA
ATOM      7  C   UNL d   1      39.587  -2.033 -15.551  0.00  0.00     0.151 A 
ATOM      8  C   UNL d   1      39.079  -1.344 -16.067  0.00  0.00     0.167 A 
ATOM      9  C   UNL d   1      39.338  -2.998 -15.626  0.00  0.00     0.282 A 
ATOM     10  C   UNL d   1      38.072  -2.586 -16.733  0.00  0.00     0.332 A 
ATOM     11  C   UNL d   1      40.223  -0.591 -15.221  0.00  0.00     0.212 A 
ATOM     12  C   UNL d   1      37.812  -0.931 -17.174  0.00  0.00     0.163 C 
ATOM     13  C   UNL d   1      40.957  -1.996 -14.421  0.00  0.00     0.157 C 
ATOM     14  C   UNL d   1      38.331  -4.240 -16.292  0.00  0.00     0.164 C 
ENDROOT
TORSDOF 0
ENDMDL
MODEL 3
REMARK VINA RESULT:    -6.096      1.233      3.072
REMARK INTER + INTRA:          -6.096
REMARK INTER:                  -6.096
REMARK INTRA:                   0.000
REMARK UNBOUND:                 0.000
REMARK  0 active torsions:
REMARK  status: ('A' for Active; 'I' for Inactive)
ROOT
ATOM      1  O   UNL d   1      37.917  -0.816 -16.186  0.00  0.00    -0.265 OA
ATOM      2  O   UNL d   1      37.449  -4.248 -16.152  0.00  0.00    -0.246 OA
ATOM      3  N   UNL d   1      38.883  -3.563 -15.465  0.00  0.00    -0.286 N 
ATOM      4  N   UNL d   1      39.802  -1.193 -15.180  0.00  0.00    -0.338 N 
ATOM      5  N   UNL d   1      37.683  -2.532 -16.169  0.00  0.00    -0.269 N 
ATOM      6  N   UNL d   1      40.321  -2.668 -14.792  0.00  0.00    -0.223 NA
ATOM      7  C   UNL d   1      39.117  -1.847 -15.482  0.00  0.00     0.151 A 
ATOM      8  C   UNL d   1      39.439  -2.762 -15.241  0.00  0.00     0.167 A 
ATOM      9  C   UNL d   1      38.239  -1.732 -15.946  0.00  0.00     0.282 A 
ATOM     10  C   UNL d   1      38.005  -3.448 -15.929  0.00  0.00     0.332 A 
ATOM     11  C   UNL d   1      40.545  -1.699 -14.754  0.00  0.00     0.212 A 
ATOM     12  C   UNL d   1      39.205  -4.479 -15.224  0.00  0.00     0.163 C 
ATOM     13  C   UNL d   1      39.754  -0.200 -15.285  0.00  0.00     0.157 C 
ATOM     14  C   UNL d   1      36.805  -2.417 -16.633  0.00  0.00     0.164 C 
ENDROOT
TORSDOF 0
ENDMDL
MODEL 4
REMARK VINA RESULT:    -6.072      1.334      1.959
REMARK INTER + INTRA:          -6.072
REMARK INTER:                  -6.072
REMARK INTRA:                   0.000
REMARK UNBOUND:                 0.000
REMARK  0 active torsions:
REMARK  status: ('A' for Active; 'I' for Inactive)
ROOT
ATOM      1  O   UNL d   1      39.306  -4.082 -14.973  0.00  0.00    -0.265 OA
ATOM      2  O   UNL d   1      39.630  -0.769 -15.929  0.00  0.00    -0.246 OA
ATOM      3  N   UNL d   1      38.326  -1.725 -16.549  0.00  0.00    -0.286 N 
ATOM      4  N   UNL d   1      37.552  -4.144 -16.249  0.00  0.00    -0.338 N 
ATOM      5  N   UNL d   1      39.468  -2.426 -15.451  0.00  0.00    -0.269 N 
ATOM      6  N   UNL d   1      37.026  -2.880 -17.095  0.00  0.00    -0.223 NA
ATOM      7  C   UNL d   1      38.164  -3.382 -16.071  0.00  0.00     0.151 A 
ATOM      8  C   UNL d   1      37.838  -2.597 -16.597  0.00  0.00     0.167 A 
ATOM      9  C   UNL d   1      38.980  -3.297 -15.498  0.00  0.00     0.282 A 
ATOM     10  C   UNL d   1      39.142  -1.640 -15.976  0.00  0.00     0.332 A 
ATOM     11  C   UNL d   1      36.849  -3.835 -16.882  0.00  0.00     0.212 A 
ATOM     12  C   UNL d   1      38.000  -0.940 -17.075  0.00  0.00     0.163 C 
ATOM     13  C   UNL d   1      37.628  -5.063 -15.862  0.00  0.00     0.157 C 
ATOM     14  C   UNL d   1      40.283  -2.340 -14.878  0.00  0.00     0.164 C 
ENDROOT
TORSDOF 0
ENDMDL
MODEL 5
REMARK VINA RESULT:    -6.045      1.331      2.414
REMARK INTER + INTRA:          -6.045
REMARK INTER:                  -6.045
REMARK INTRA:                   0.000
REMARK UNBOUND:                 0.000
REMARK  0 active torsions:
REMARK  status: ('A' for Active; 'I' for Inactive)
ROOT
ATOM      1  O   UNL d   1      37.381  -2.573 -17.299  0.00  0.00    -0.265 OA
ATOM      2  O   UNL d   1      39.688  -0.273 -16.121  0.00  0.00    -0.246 OA
ATOM      3  N   UNL d   1      39.592  -1.847 -15.406  0.00  0.00    -0.286 N 
ATOM      4  N   UNL d   1      38.162  -3.931 -15.797  0.00  0.00    -0.338 N 
ATOM      5  N   UNL d   1      38.534  -1.423 -16.710  0.00  0.00    -0.269 N 
ATOM      6  N   UNL d   1      39.349  -3.542 -14.781  0.00  0.00    -0.223 NA
ATOM      7  C   UNL d   1      38.439  -2.997 -15.995  0.00  0.00     0.151 A 
ATOM      8  C   UNL d   1      39.176  -2.756 -15.364  0.00  0.00     0.167 A 
ATOM      9  C   UNL d   1      38.118  -2.331 -16.668  0.00  0.00     0.282 A 
ATOM     10  C   UNL d   1      39.271  -1.181 -16.079  0.00  0.00     0.332 A 
ATOM     11  C   UNL d   1      38.723  -4.268 -15.048  0.00  0.00     0.212 A 
ATOM     12  C   UNL d   1      40.329  -1.605 -14.775  0.00  0.00     0.163 C 
ATOM     13  C   UNL d   1      37.445  -4.444 -16.268  0.00  0.00     0.157 C 
ATOM     14  C   UNL d   1      38.213  -0.756 -17.383  0.00  0.00     0.164 C 
ENDROOT
TORSDOF 0
ENDMDL
