MODEL 1
REMARK VINA RESULT:    -8.602      0.000      0.000
REMARK INTER + INTRA:          -9.861
REMARK INTER:                  -9.851
REMARK INTRA:                  -0.010
REMARK UNBOUND:                -0.001
REMARK  4 active torsions:
REMARK  status: ('A' for Active; 'I' for Inactive)
REMARK    1  A    between atoms: O_1  and  C_13 
REMARK    2  A    between atoms: O_4  and  C_16 
REMARK    3  A    between atoms: O_5  and  C_18 
REMARK    4  A    between atoms: C_14  and  C_18 
ROOT
ATOM      1  O   UNL d   1      10.339 -31.152 -17.647  0.00  0.00    -0.286 OA
ATOM      2  O   UNL d   1       9.529 -30.115 -21.424  0.00  0.00    -0.287 OA
ATOM      3  C   UNL d   1      10.048 -31.299 -20.272  0.00  0.00     0.032 A 
ATOM      4  C   UNL d   1      10.251 -31.559 -19.328  0.00  0.00     0.062 A 
ATOM      5  C   UNL d   1       9.820 -29.967 -18.799  0.00  0.00     0.062 A 
ATOM      6  C   UNL d   1       9.617 -29.708 -19.743  0.00  0.00     0.032 A 
ATOM      7  C   UNL d   1      10.137 -30.892 -18.591  0.00  0.00     0.199 A 
ATOM      8  C   UNL d   1       9.731 -30.374 -20.480  0.00  0.00     0.194 A 
ATOM      9  C   UNL d   1      10.162 -31.982 -21.051  0.00  0.00     0.026 A 
ATOM     10  C   UNL d   1      10.581 -32.519 -19.097  0.00  0.00     0.081 A 
ATOM     11  C   UNL d   1      10.492 -32.948 -20.842  0.00  0.00    -0.031 A 
ATOM     12  C   UNL d   1      10.703 -33.218 -19.859  0.00  0.00     0.046 A 
ATOM     13  C   UNL d   1       9.705 -29.284 -18.021  0.00  0.00     0.080 A 
ATOM     14  C   UNL d   1       9.286 -28.747 -19.975  0.00  0.00     0.017 A 
ATOM     15  C   UNL d   1       9.376 -28.318 -18.229  0.00  0.00     0.037 A 
ATOM     16  C   UNL d   1       9.165 -28.048 -19.212  0.00  0.00     0.004 A 
ENDROOT
BRANCH  11  17
ATOM     17  C   UNL d   1      10.605 -33.612 -21.582  0.00  0.00     0.203 C 
BRANCH  17  18
ATOM     18  O   UNL d   1      11.447 -33.619 -22.122  0.00  0.00    -0.396 OA
ATOM     19  H   UNL d   1      11.511 -33.231 -22.602  0.00  0.00     0.209 HD
ENDBRANCH  17  18
ENDBRANCH  11  17
BRANCH  10  20
ATOM     20  O   UNL d   1      10.781 -32.767 -18.149  0.00  0.00    -0.360 OA
ATOM     21  H   UNL d   1      10.351 -33.057 -17.808  0.00  0.00     0.217 HD
ENDBRANCH  10  20
BRANCH  13  22
ATOM     22  O   UNL d   1       9.911 -29.554 -17.080  0.00  0.00    -0.360 OA
ATOM     23  H   UNL d   1       9.990 -29.120 -16.644  0.00  0.00     0.217 HD
ENDBRANCH  13  22
TORSDOF 4
ENDMDL
MODEL 2
REMARK VINA RESULT:    -8.530      0.851      2.291
REMARK INTER + INTRA:          -9.778
REMARK INTER:                  -9.768
REMARK INTRA:                  -0.010
REMARK UNBOUND:                -0.001
REMARK  4 active torsions:
REMARK  status: ('A' for Active; 'I' for Inactive)
REMARK    1  A    between atoms: O_1  and  C_13 
REMARK    2  A    between atoms: O_4  and  C_16 
REMARK    3  A    between atoms: O_5  and  C_18 
REMARK    4  A    between atoms: C_14  and  C_18 
ROOT
ATOM      1  O   UNL d   1       9.300 -29.480 -21.111  0.00  0.00    -0.286 OA
ATOM      2  O   UNL d   1      10.489 -31.556 -17.905  0.00  0.00    -0.287 OA
ATOM      3  C   UNL d   1      10.223 -31.456 -19.613  0.00  0.00     0.032 A 
ATOM      4  C   UNL d   1       9.926 -30.938 -20.415  0.00  0.00     0.062 A 
ATOM      5  C   UNL d   1       9.565 -29.580 -19.402  0.00  0.00     0.062 A 
ATOM      6  C   UNL d   1       9.863 -30.099 -18.601  0.00  0.00     0.032 A 
ATOM      7  C   UNL d   1       9.597 -29.999 -20.309  0.00  0.00     0.199 A 
ATOM      8  C   UNL d   1      10.192 -31.037 -18.706  0.00  0.00     0.194 A 
ATOM      9  C   UNL d   1      10.569 -32.435 -19.707  0.00  0.00     0.026 A 
ATOM     10  C   UNL d   1       9.954 -31.361 -21.366  0.00  0.00     0.081 A 
ATOM     11  C   UNL d   1      10.605 -32.879 -20.649  0.00  0.00    -0.031 A 
ATOM     12  C   UNL d   1      10.295 -32.338 -21.484  0.00  0.00     0.046 A 
ATOM     13  C   UNL d   1       9.220 -28.602 -19.307  0.00  0.00     0.080 A 
ATOM     14  C   UNL d   1       9.835 -29.675 -17.649  0.00  0.00     0.017 A 
ATOM     15  C   UNL d   1       9.184 -28.158 -18.366  0.00  0.00     0.037 A 
ATOM     16  C   UNL d   1       9.494 -28.698 -17.531  0.00  0.00     0.004 A 
ENDROOT
BRANCH  11  17
ATOM     17  C   UNL d   1      10.935 -33.817 -20.750  0.00  0.00     0.203 C 
BRANCH  17  18
ATOM     18  O   UNL d   1      11.917 -34.005 -20.739  0.00  0.00    -0.396 OA
ATOM     19  H   UNL d   1      12.289 -33.688 -20.358  0.00  0.00     0.209 HD
ENDBRANCH  17  18
ENDBRANCH  11  17
BRANCH  10  20
ATOM     20  O   UNL d   1       9.654 -30.833 -22.160  0.00  0.00    -0.360 OA
ATOM     21  H   UNL d   1       9.235 -30.381 -22.091  0.00  0.00     0.217 HD
ENDBRANCH  10  20
BRANCH  13  22
ATOM     22  O   UNL d   1       8.925 -28.092 -20.116  0.00  0.00    -0.360 OA
ATOM     23  H   UNL d   1       8.327 -28.093 -20.281  0.00  0.00     0.217 HD
ENDBRANCH  13  22
TORSDOF 4
ENDMDL
MODEL 3
REMARK VINA RESULT:    -8.444     62.130     63.708
REMARK INTER + INTRA:          -9.679
REMARK INTER:                  -9.725
REMARK INTRA:                   0.046
REMARK UNBOUND:                -0.001
REMARK  4 active torsions:
REMARK  status: ('A' for Active; 'I' for Inactive)
REMARK    1  A    between atoms: O_1  and  C_13 
REMARK    2  A    between atoms: O_4  and  C_16 
REMARK    3  A    between atoms: O_5  and  C_18 
REMARK    4  A    between atoms: C_14  and  C_18 
ROOT
ATOM      1  O   UNL d   1      -4.055   7.649  26.913  0.00  0.00    -0.286 OA
ATOM      2  O   UNL d   1      -6.427  10.228  28.843  0.00  0.00    -0.287 OA
ATOM      3  C   UNL d   1      -6.235   8.845  27.818  0.00  0.00     0.032 A 
ATOM      4  C   UNL d   1      -5.642   8.201  27.335  0.00  0.00     0.062 A 
ATOM      5  C   UNL d   1      -4.247   9.032  27.938  0.00  0.00     0.062 A 
ATOM      6  C   UNL d   1      -4.840   9.677  28.421  0.00  0.00     0.032 A 
ATOM      7  C   UNL d   1      -4.648   8.294  27.395  0.00  0.00     0.199 A 
ATOM      8  C   UNL d   1      -5.834   9.583  28.361  0.00  0.00     0.194 A 
ATOM      9  C   UNL d   1      -7.272   8.761  27.765  0.00  0.00     0.026 A 
ATOM     10  C   UNL d   1      -6.045   7.427  26.766  0.00  0.00     0.081 A 
ATOM     11  C   UNL d   1      -7.696   7.995  27.201  0.00  0.00    -0.031 A 
ATOM     12  C   UNL d   1      -7.079   7.323  26.699  0.00  0.00     0.046 A 
ATOM     13  C   UNL d   1      -3.211   9.117  27.992  0.00  0.00     0.080 A 
ATOM     14  C   UNL d   1      -4.437  10.451  28.990  0.00  0.00     0.017 A 
ATOM     15  C   UNL d   1      -2.786   9.883  28.555  0.00  0.00     0.037 A 
ATOM     16  C   UNL d   1      -3.403  10.554  29.057  0.00  0.00     0.004 A 
ENDROOT
BRANCH  11  17
ATOM     17  C   UNL d   1      -8.691   7.905  27.144  0.00  0.00     0.203 C 
BRANCH  17  18
ATOM     18  O   UNL d   1      -9.116   7.003  27.221  0.00  0.00    -0.396 OA
ATOM     19  H   UNL d   1      -8.938   6.543  26.845  0.00  0.00     0.209 HD
ENDBRANCH  17  18
ENDBRANCH  11  17
BRANCH  10  20
ATOM     20  O   UNL d   1      -5.442   6.788  26.288  0.00  0.00    -0.360 OA
ATOM     21  H   UNL d   1      -5.653   6.228  26.124  0.00  0.00     0.217 HD
ENDBRANCH  10  20
BRANCH  13  22
ATOM     22  O   UNL d   1      -2.627   8.467  27.505  0.00  0.00    -0.360 OA
ATOM     23  H   UNL d   1      -2.179   8.674  27.129  0.00  0.00     0.217 HD
ENDBRANCH  13  22
TORSDOF 4
ENDMDL
MODEL 4
REMARK VINA RESULT:    -8.327      0.934      3.870
REMARK INTER + INTRA:          -9.546
REMARK INTER:                  -9.590
REMARK INTRA:                   0.044
REMARK UNBOUND:                -0.001
REMARK  4 active torsions:
REMARK  status: ('A' for Active; 'I' for Inactive)
REMARK    1  A    between atoms: O_1  and  C_13 
REMARK    2  A    between atoms: O_4  and  C_16 
REMARK    3  A    between atoms: O_5  and  C_18 
REMARK    4  A    between atoms: C_14  and  C_18 
ROOT
ATOM      1  O   UNL d   1      10.327 -31.588 -17.835  0.00  0.00    -0.286 OA
ATOM      2  O   UNL d   1       9.688 -30.390 -21.598  0.00  0.00    -0.287 OA
ATOM      3  C   UNL d   1       9.682 -30.061 -19.897  0.00  0.00     0.032 A 
ATOM      4  C   UNL d   1       9.842 -30.361 -18.957  0.00  0.00     0.062 A 
ATOM      5  C   UNL d   1      10.332 -31.918 -19.536  0.00  0.00     0.062 A 
ATOM      6  C   UNL d   1      10.173 -31.618 -20.476  0.00  0.00     0.032 A 
ATOM      7  C   UNL d   1      10.167 -31.289 -18.776  0.00  0.00     0.199 A 
ATOM      8  C   UNL d   1       9.847 -30.690 -20.657  0.00  0.00     0.194 A 
ATOM      9  C   UNL d   1       9.344 -29.097 -20.101  0.00  0.00     0.026 A 
ATOM     10  C   UNL d   1       9.675 -29.717 -18.155  0.00  0.00     0.081 A 
ATOM     11  C   UNL d   1       9.170 -28.437 -19.315  0.00  0.00    -0.031 A 
ATOM     12  C   UNL d   1       9.336 -28.749 -18.336  0.00  0.00     0.046 A 
ATOM     13  C   UNL d   1      10.671 -32.881 -19.332  0.00  0.00     0.080 A 
ATOM     14  C   UNL d   1      10.340 -32.261 -21.279  0.00  0.00     0.017 A 
ATOM     15  C   UNL d   1      10.845 -33.542 -20.119  0.00  0.00     0.037 A 
ATOM     16  C   UNL d   1      10.679 -33.230 -21.098  0.00  0.00     0.004 A 
ENDROOT
BRANCH  11  17
ATOM     17  C   UNL d   1       8.845 -27.509 -19.500  0.00  0.00     0.203 C 
BRANCH  17  18
ATOM     18  O   UNL d   1       8.424 -27.294 -20.382  0.00  0.00    -0.396 OA
ATOM     19  H   UNL d   1       8.781 -27.145 -20.867  0.00  0.00     0.209 HD
ENDBRANCH  17  18
ENDBRANCH  11  17
BRANCH  10  20
ATOM     20  O   UNL d   1       9.838 -30.027 -17.219  0.00  0.00    -0.360 OA
ATOM     21  H   UNL d   1      10.373 -29.889 -16.936  0.00  0.00     0.217 HD
ENDBRANCH  10  20
BRANCH  13  22
ATOM     22  O   UNL d   1      10.827 -33.170 -18.388  0.00  0.00    -0.360 OA
ATOM     23  H   UNL d   1      10.507 -32.907 -17.926  0.00  0.00     0.217 HD
ENDBRANCH  13  22
TORSDOF 4
ENDMDL
MODEL 5
REMARK VINA RESULT:    -8.322     62.125     63.807
REMARK INTER + INTRA:          -9.539
REMARK INTER:                  -9.537
REMARK INTRA:                  -0.003
REMARK UNBOUND:                -0.001
REMARK  4 active torsions:
REMARK  status: ('A' for Active; 'I' for Inactive)
REMARK    1  A    between atoms: O_1  and  C_13 
REMARK    2  A    between atoms: O_4  and  C_16 
REMARK    3  A    between atoms: O_5  and  C_18 
REMARK    4  A    between atoms: C_14  and  C_18 
ROOT
ATOM      1  O   UNL d   1      -6.295   9.521  29.283  0.00  0.00    -0.286 OA
ATOM      2  O   UNL d   1      -6.083   7.013  26.175  0.00  0.00    -0.287 OA
ATOM      3  C   UNL d   1      -7.027   7.944  27.290  0.00  0.00     0.032 A 
ATOM      4  C   UNL d   1      -7.080   8.571  28.067  0.00  0.00     0.062 A 
ATOM      5  C   UNL d   1      -5.351   8.590  28.169  0.00  0.00     0.062 A 
ATOM      6  C   UNL d   1      -5.298   7.963  27.392  0.00  0.00     0.032 A 
ATOM      7  C   UNL d   1      -6.242   8.894  28.506  0.00  0.00     0.199 A 
ATOM      8  C   UNL d   1      -6.136   7.640  26.952  0.00  0.00     0.194 A 
ATOM      9  C   UNL d   1      -7.891   7.599  26.821  0.00  0.00     0.026 A 
ATOM     10  C   UNL d   1      -8.000   8.896  28.429  0.00  0.00     0.081 A 
ATOM     11  C   UNL d   1      -8.823   7.911  27.167  0.00  0.00    -0.031 A 
ATOM     12  C   UNL d   1      -8.878   8.564  27.976  0.00  0.00     0.046 A 
ATOM     13  C   UNL d   1      -4.487   8.935  28.636  0.00  0.00     0.080 A 
ATOM     14  C   UNL d   1      -4.377   7.637  27.029  0.00  0.00     0.017 A 
ATOM     15  C   UNL d   1      -3.555   8.623  28.290  0.00  0.00     0.037 A 
ATOM     16  C   UNL d   1      -3.500   7.970  27.481  0.00  0.00     0.004 A 
ENDROOT
BRANCH  11  17
ATOM     17  C   UNL d   1      -9.658   7.585  26.725  0.00  0.00     0.203 C 
BRANCH  17  18
ATOM     18  O   UNL d   1      -9.839   7.815  25.768  0.00  0.00    -0.396 OA
ATOM     19  H   UNL d   1     -10.383   7.665  25.510  0.00  0.00     0.209 HD
ENDBRANCH  17  18
ENDBRANCH  11  17
BRANCH  10  20
ATOM     20  O   UNL d   1      -8.041   9.523  29.207  0.00  0.00    -0.360 OA
ATOM     21  H   UNL d   1      -7.521   9.785  29.421  0.00  0.00     0.217 HD
ENDBRANCH  10  20
BRANCH  13  22
ATOM     22  O   UNL d   1      -4.551   9.562  29.413  0.00  0.00    -0.360 OA
ATOM     23  H   UNL d   1      -4.047   9.866  29.609  0.00  0.00     0.217 HD
ENDBRANCH  13  22
TORSDOF 4
ENDMDL
