MODEL 1
REMARK VINA RESULT:    -8.450      0.000      0.000
REMARK INTER + INTRA:          -8.434
REMARK INTER:                  -9.467
REMARK INTRA:                   1.033
REMARK UNBOUND:                 1.004
REMARK  3 active torsions:
REMARK  status: ('A' for Active; 'I' for Inactive)
REMARK    1  A    between atoms: O_2  and  C_10 
REMARK    2  A    between atoms: O_4  and  C_13 
REMARK    3  A    between atoms: C_7  and  C_9 
ROOT
ATOM      1  O   UNL d   1      -3.444  11.152  -7.088  0.00  0.00    -0.309 OA
ATOM      2  O   UNL d   1      -3.747   9.340  -9.460  0.00  0.00    -0.287 OA
ATOM      3  C   UNL d   1      -3.346  10.889  -8.797  0.00  0.00     0.081 A 
ATOM      4  C   UNL d   1      -3.245  11.493  -8.007  0.00  0.00     0.095 A 
ATOM      5  C   UNL d   1      -3.744  10.206  -6.960  0.00  0.00     0.090 A 
ATOM      6  C   UNL d   1      -3.646   9.944  -8.669  0.00  0.00     0.190 A 
ATOM      7  C   UNL d   1      -3.142  11.231  -9.760  0.00  0.00     0.085 A 
ATOM      8  C   UNL d   1      -3.845   9.602  -7.751  0.00  0.00     0.094 A 
ATOM      9  C   UNL d   1      -2.934  12.480  -8.124  0.00  0.00     0.075 A 
ATOM     10  C   UNL d   1      -2.724  12.843  -9.078  0.00  0.00     0.071 A 
ATOM     11  C   UNL d   1      -2.829  12.214  -9.901  0.00  0.00     0.074 A 
ENDROOT
BRANCH   5  12
ATOM     12  C   UNL d   1      -3.943   9.865  -6.041  0.00  0.00    -0.002 A 
ATOM     13  C   UNL d   1      -4.891   9.777  -5.735  0.00  0.00     0.014 A 
ATOM     14  C   UNL d   1      -5.090   9.436  -4.817  0.00  0.00     0.001 A 
ATOM     15  C   UNL d   1      -4.342   9.182  -4.204  0.00  0.00     0.000 A 
ATOM     16  C   UNL d   1      -3.394   9.270  -4.511  0.00  0.00     0.001 A 
ATOM     17  C   UNL d   1      -3.195   9.611  -5.429  0.00  0.00     0.014 A 
ENDBRANCH   5  12
BRANCH   7  18
ATOM     18  O   UNL d   1      -3.246  10.618 -10.543  0.00  0.00    -0.360 OA
ATOM     19  H   UNL d   1      -2.786  10.233 -10.699  0.00  0.00     0.217 HD
ENDBRANCH   7  18
BRANCH  10  20
ATOM     20  O   UNL d   1      -2.424  13.789  -9.201  0.00  0.00    -0.361 OA
ATOM     21  H   UNL d   1      -2.822  14.214  -9.415  0.00  0.00     0.217 HD
ENDBRANCH  10  20
TORSDOF 3
ENDMDL
MODEL 2
REMARK VINA RESULT:    -8.020      1.681      2.792
REMARK INTER + INTRA:          -7.953
REMARK INTER:                  -9.012
REMARK INTRA:                   1.059
REMARK UNBOUND:                 1.004
REMARK  3 active torsions:
REMARK  status: ('A' for Active; 'I' for Inactive)
REMARK    1  A    between atoms: O_2  and  C_10 
REMARK    2  A    between atoms: O_4  and  C_13 
REMARK    3  A    between atoms: C_7  and  C_9 
ROOT
ATOM      1  O   UNL d   1      -3.293  12.457  -8.828  0.00  0.00    -0.309 OA
ATOM      2  O   UNL d   1      -1.406  11.528 -10.967  0.00  0.00    -0.287 OA
ATOM      3  C   UNL d   1      -2.191  12.815 -10.115  0.00  0.00     0.081 A 
ATOM      4  C   UNL d   1      -2.820  13.125  -9.402  0.00  0.00     0.095 A 
ATOM      5  C   UNL d   1      -3.136  11.479  -8.966  0.00  0.00     0.090 A 
ATOM      6  C   UNL d   1      -2.035  11.837 -10.254  0.00  0.00     0.190 A 
ATOM      7  C   UNL d   1      -1.692  13.500 -10.721  0.00  0.00     0.085 A 
ATOM      8  C   UNL d   1      -2.508  11.169  -9.679  0.00  0.00     0.094 A 
ATOM      9  C   UNL d   1      -2.993  14.140  -9.245  0.00  0.00     0.075 A 
ATOM     10  C   UNL d   1      -2.504  14.842  -9.840  0.00  0.00     0.071 A 
ATOM     11  C   UNL d   1      -1.850  14.520 -10.582  0.00  0.00     0.074 A 
ENDROOT
BRANCH   5  12
ATOM     12  C   UNL d   1      -3.609  10.811  -8.392  0.00  0.00    -0.002 A 
ATOM     13  C   UNL d   1      -3.389  10.744  -7.418  0.00  0.00     0.014 A 
ATOM     14  C   UNL d   1      -3.862  10.075  -6.844  0.00  0.00     0.001 A 
ATOM     15  C   UNL d   1      -4.554   9.474  -7.243  0.00  0.00     0.000 A 
ATOM     16  C   UNL d   1      -4.774   9.541  -8.216  0.00  0.00     0.001 A 
ATOM     17  C   UNL d   1      -4.301  10.209  -8.790  0.00  0.00     0.014 A 
ENDBRANCH   5  12
BRANCH   7  18
ATOM     18  O   UNL d   1      -1.065  13.178 -11.431  0.00  0.00    -0.360 OA
ATOM     19  H   UNL d   1      -0.497  13.421 -11.475  0.00  0.00     0.217 HD
ENDBRANCH   7  18
BRANCH  10  20
ATOM     20  O   UNL d   1      -2.664  15.819  -9.698  0.00  0.00    -0.361 OA
ATOM     21  H   UNL d   1      -2.192  16.191  -9.543  0.00  0.00     0.217 HD
ENDBRANCH  10  20
TORSDOF 3
ENDMDL
MODEL 3
REMARK VINA RESULT:    -7.901      1.769      4.601
REMARK INTER + INTRA:          -7.821
REMARK INTER:                  -9.278
REMARK INTRA:                   1.457
REMARK UNBOUND:                 1.004
REMARK  3 active torsions:
REMARK  status: ('A' for Active; 'I' for Inactive)
REMARK    1  A    between atoms: O_2  and  C_10 
REMARK    2  A    between atoms: O_4  and  C_13 
REMARK    3  A    between atoms: C_7  and  C_9 
ROOT
ATOM      1  O   UNL d   1      -3.910  10.658  -6.470  0.00  0.00    -0.309 OA
ATOM      2  O   UNL d   1      -5.054   7.890  -6.645  0.00  0.00    -0.287 OA
ATOM      3  C   UNL d   1      -4.643   9.287  -5.707  0.00  0.00     0.081 A 
ATOM      4  C   UNL d   1      -4.262  10.209  -5.648  0.00  0.00     0.095 A 
ATOM      5  C   UNL d   1      -3.940  10.184  -7.350  0.00  0.00     0.090 A 
ATOM      6  C   UNL d   1      -4.673   8.813  -6.587  0.00  0.00     0.190 A 
ATOM      7  C   UNL d   1      -5.013   8.807  -4.860  0.00  0.00     0.085 A 
ATOM      8  C   UNL d   1      -4.321   9.262  -7.409  0.00  0.00     0.094 A 
ATOM      9  C   UNL d   1      -4.224  10.716  -4.739  0.00  0.00     0.075 A 
ATOM     10  C   UNL d   1      -4.588  10.255  -3.879  0.00  0.00     0.071 A 
ATOM     11  C   UNL d   1      -4.985   9.295  -3.940  0.00  0.00     0.074 A 
ENDROOT
BRANCH   5  12
ATOM     12  C   UNL d   1      -3.588  10.633  -8.172  0.00  0.00    -0.002 A 
ATOM     13  C   UNL d   1      -3.190  11.548  -8.110  0.00  0.00     0.014 A 
ATOM     14  C   UNL d   1      -2.838  11.997  -8.932  0.00  0.00     0.001 A 
ATOM     15  C   UNL d   1      -2.885  11.530  -9.815  0.00  0.00     0.000 A 
ATOM     16  C   UNL d   1      -3.283  10.615  -9.877  0.00  0.00     0.001 A 
ATOM     17  C   UNL d   1      -3.635  10.166  -9.055  0.00  0.00     0.014 A 
ENDBRANCH   5  12
BRANCH   7  18
ATOM     18  O   UNL d   1      -5.392   7.884  -4.930  0.00  0.00    -0.360 OA
ATOM     19  H   UNL d   1      -5.833   7.700  -4.536  0.00  0.00     0.217 HD
ENDBRANCH   7  18
BRANCH  10  20
ATOM     20  O   UNL d   1      -4.556  10.733  -3.000  0.00  0.00    -0.361 OA
ATOM     21  H   UNL d   1      -4.036  11.018  -2.822  0.00  0.00     0.217 HD
ENDBRANCH  10  20
TORSDOF 3
ENDMDL
MODEL 4
REMARK VINA RESULT:    -7.822     10.363     11.322
REMARK INTER + INTRA:          -7.732
REMARK INTER:                  -8.744
REMARK INTRA:                   1.011
REMARK UNBOUND:                 1.004
REMARK  3 active torsions:
REMARK  status: ('A' for Active; 'I' for Inactive)
REMARK    1  A    between atoms: O_2  and  C_10 
REMARK    2  A    between atoms: O_4  and  C_13 
REMARK    3  A    between atoms: C_7  and  C_9 
ROOT
ATOM      1  O   UNL d   1       5.745   5.105  -7.433  0.00  0.00    -0.309 OA
ATOM      2  O   UNL d   1       4.042   4.005  -9.643  0.00  0.00    -0.287 OA
ATOM      3  C   UNL d   1       4.979   3.759  -8.208  0.00  0.00     0.081 A 
ATOM      4  C   UNL d   1       5.547   4.126  -7.471  0.00  0.00     0.095 A 
ATOM      5  C   UNL d   1       5.375   5.718  -8.131  0.00  0.00     0.090 A 
ATOM      6  C   UNL d   1       4.609   4.372  -8.907  0.00  0.00     0.190 A 
ATOM      7  C   UNL d   1       4.765   2.741  -8.261  0.00  0.00     0.085 A 
ATOM      8  C   UNL d   1       4.807   5.351  -8.868  0.00  0.00     0.094 A 
ATOM      9  C   UNL d   1       5.940   3.500  -6.736  0.00  0.00     0.075 A 
ATOM     10  C   UNL d   1       5.738   2.479  -6.770  0.00  0.00     0.071 A 
ATOM     11  C   UNL d   1       5.147   2.097  -7.537  0.00  0.00     0.074 A 
ENDROOT
BRANCH   5  12
ATOM     12  C   UNL d   1       5.573   6.697  -8.093  0.00  0.00    -0.002 A 
ATOM     13  C   UNL d   1       4.894   7.330  -7.720  0.00  0.00     0.014 A 
ATOM     14  C   UNL d   1       5.092   8.310  -7.682  0.00  0.00     0.001 A 
ATOM     15  C   UNL d   1       5.969   8.656  -8.016  0.00  0.00     0.000 A 
ATOM     16  C   UNL d   1       6.647   8.023  -8.388  0.00  0.00     0.001 A 
ATOM     17  C   UNL d   1       6.450   7.044  -8.427  0.00  0.00     0.014 A 
ENDBRANCH   5  12
BRANCH   7  18
ATOM     18  O   UNL d   1       4.196   2.386  -9.002  0.00  0.00    -0.360 OA
ATOM     19  H   UNL d   1       4.391   1.902  -9.337  0.00  0.00     0.217 HD
ENDBRANCH   7  18
BRANCH  10  20
ATOM     20  O   UNL d   1       6.110   1.870  -6.069  0.00  0.00    -0.361 OA
ATOM     21  H   UNL d   1       6.723   1.810  -6.005  0.00  0.00     0.217 HD
ENDBRANCH  10  20
TORSDOF 3
ENDMDL
MODEL 5
REMARK VINA RESULT:    -7.409      2.936      4.688
REMARK INTER + INTRA:          -7.271
REMARK INTER:                  -8.271
REMARK INTRA:                   1.000
REMARK UNBOUND:                 1.004
REMARK  3 active torsions:
REMARK  status: ('A' for Active; 'I' for Inactive)
REMARK    1  A    between atoms: O_2  and  C_10 
REMARK    2  A    between atoms: O_4  and  C_13 
REMARK    3  A    between atoms: C_7  and  C_9 
ROOT
ATOM      1  O   UNL d   1      -5.313   9.281  -4.254  0.00  0.00    -0.309 OA
ATOM      2  O   UNL d   1      -3.797   9.963  -6.751  0.00  0.00    -0.287 OA
ATOM      3  C   UNL d   1      -4.554   8.787  -5.730  0.00  0.00     0.081 A 
ATOM      4  C   UNL d   1      -5.059   8.559  -4.897  0.00  0.00     0.095 A 
ATOM      5  C   UNL d   1      -5.062  10.231  -4.443  0.00  0.00     0.090 A 
ATOM      6  C   UNL d   1      -4.302   9.736  -5.919  0.00  0.00     0.190 A 
ATOM      7  C   UNL d   1      -4.282   8.045  -6.409  0.00  0.00     0.085 A 
ATOM      8  C   UNL d   1      -4.557  10.458  -5.275  0.00  0.00     0.094 A 
ATOM      9  C   UNL d   1      -5.328   7.575  -4.687  0.00  0.00     0.075 A 
ATOM     10  C   UNL d   1      -5.067   6.818  -5.352  0.00  0.00     0.071 A 
ATOM     11  C   UNL d   1      -4.540   7.054  -6.219  0.00  0.00     0.074 A 
ENDROOT
BRANCH   5  12
ATOM     12  C   UNL d   1      -5.316  10.953  -3.799  0.00  0.00    -0.002 A 
ATOM     13  C   UNL d   1      -6.167  11.462  -3.930  0.00  0.00     0.014 A 
ATOM     14  C   UNL d   1      -6.421  12.184  -3.286  0.00  0.00     0.001 A 
ATOM     15  C   UNL d   1      -5.825  12.397  -2.512  0.00  0.00     0.000 A 
ATOM     16  C   UNL d   1      -4.974  11.887  -2.382  0.00  0.00     0.001 A 
ATOM     17  C   UNL d   1      -4.720  11.165  -3.025  0.00  0.00     0.014 A 
ENDBRANCH   5  12
BRANCH   7  18
ATOM     18  O   UNL d   1      -3.777   8.284  -7.238  0.00  0.00    -0.360 OA
ATOM     19  H   UNL d   1      -3.994   8.115  -7.793  0.00  0.00     0.217 HD
ENDBRANCH   7  18
BRANCH  10  20
ATOM     20  O   UNL d   1      -5.320   5.870  -5.159  0.00  0.00    -0.361 OA
ATOM     21  H   UNL d   1      -5.652   5.735  -4.653  0.00  0.00     0.217 HD
ENDBRANCH  10  20
TORSDOF 3
ENDMDL
