MODEL 1
REMARK VINA RESULT:    -0.005      0.000      0.000
REMARK INTER + INTRA:          13.115
REMARK INTER:                   0.000
REMARK INTRA:                  13.115
REMARK UNBOUND:                13.125
REMARK  20 active torsions:
REMARK  status: ('A' for Active; 'I' for Inactive)
REMARK    1  A    between atoms: O_4  and  C_30 
REMARK    2  A    between atoms: O_5  and  C_32 
REMARK    3  A    between atoms: O_5  and  C_48 
REMARK    4  A    between atoms: O_7  and  C_36 
REMARK    5  A    between atoms: O_9  and  C_39 
REMARK    6  A    between atoms: O_10  and  C_42 
REMARK    7  A    between atoms: O_12  and  C_44 
REMARK    8  A    between atoms: O_14  and  C_47 
REMARK    9  A    between atoms: O_15  and  C_49 
REMARK   10  A    between atoms: O_18  and  C_56 
REMARK   11  A    between atoms: O_19  and  C_57 
REMARK   12  A    between atoms: O_20  and  C_58 
REMARK   13  A    between atoms: O_21  and  C_60 
REMARK   14  A    between atoms: O_22  and  C_61 
REMARK   15  A    between atoms: O_23  and  C_64 
REMARK   16  A    between atoms: O_24  and  C_65 
REMARK   17  A    between atoms: O_25  and  C_66 
REMARK   18  A    between atoms: O_26  and  C_67 
REMARK   19  A    between atoms: C_28  and  C_29 
REMARK   20  A    between atoms: C_48  and  C_55 
ROOT
ATOM      1  O   UNL d   1       0.144   6.447  34.569  0.00  0.00    -0.306 OA
ATOM      2  O   UNL d   1      -0.221   7.791  34.030  0.00  0.00    -0.315 OA
ATOM      3  O   UNL d   1      -0.334   8.058  34.425  0.00  0.00    -0.259 OA
ATOM      4  O   UNL d   1      -0.406   7.891  35.924  0.00  0.00    -0.259 OA
ATOM      5  C   UNL d   1       0.232   6.429  33.573  0.00  0.00     0.196 A 
ATOM      6  C   UNL d   1       0.089   7.093  32.839  0.00  0.00     0.188 A 
ATOM      7  C   UNL d   1      -0.211   8.021  33.056  0.00  0.00     0.214 A 
ATOM      8  C   UNL d   1      -0.148   7.285  35.030  0.00  0.00     0.294 A 
ATOM      9  C   UNL d   1      -0.080   6.821  35.914  0.00  0.00     0.056 A 
ATOM     10  C   UNL d   1      -0.299   7.316  36.756  0.00  0.00     0.030 A 
ATOM     11  C   UNL d   1      -0.436   8.241  34.988  0.00  0.00     0.294 A 
ATOM     12  C   UNL d   1      -0.587   8.272  36.714  0.00  0.00     0.030 A 
ATOM     13  C   UNL d   1      -0.656   8.735  35.830  0.00  0.00     0.056 A 
ATOM     14  C   UNL d   1       0.221   5.825  35.942  0.00  0.00     0.058 A 
ATOM     15  C   UNL d   1      -0.232   6.846  37.683  0.00  0.00     0.114 A 
ATOM     16  C   UNL d   1      -0.812   8.773  37.598  0.00  0.00     0.114 A 
ATOM     17  C   UNL d   1       0.295   5.336  36.859  0.00  0.00     0.102 A 
ATOM     18  C   UNL d   1      -0.954   9.731  35.770  0.00  0.00     0.058 A 
ATOM     19  C   UNL d   1       0.067   5.850  37.736  0.00  0.00     0.133 A 
ATOM     20  C   UNL d   1      -1.113   9.770  37.562  0.00  0.00     0.133 A 
ATOM     21  C   UNL d   1      -1.184  10.252  36.642  0.00  0.00     0.102 A 
ENDROOT
BRANCH   5  22
ATOM     22  C   UNL d   1       0.531   5.539  33.231  0.00  0.00     0.196 A 
ATOM     23  O   UNL d   1       1.545   5.526  33.226  0.00  0.00    -0.306 OA
ATOM     24  C   UNL d   1       2.354   4.954  33.007  0.00  0.00     0.294 A 
ATOM     25  O   UNL d   1       3.176   5.486  33.211  0.00  0.00    -0.259 OA
ATOM     26  C   UNL d   1       2.642   4.047  32.659  0.00  0.00     0.056 A 
ATOM     27  C   UNL d   1       2.297   3.157  32.318  0.00  0.00     0.030 A 
ATOM     28  C   UNL d   1       3.584   4.182  32.711  0.00  0.00     0.058 A 
ATOM     29  C   UNL d   1       1.454   2.631  32.116  0.00  0.00     0.031 A 
ATOM     30  C   UNL d   1       2.929   2.490  32.062  0.00  0.00     0.114 A 
ATOM     31  C   UNL d   1       0.881   3.396  32.410  0.00  0.00     0.065 A 
ATOM     32  C   UNL d   1       1.031   1.784  31.792  0.00  0.00     0.114 A 
ATOM     33  C   UNL d   1      -0.116   3.314  32.379  0.00  0.00     0.026 A 
ATOM     34  C   UNL d   1       1.335   4.271  32.745  0.00  0.00     0.295 A 
ATOM     35  C   UNL d   1      -0.726   4.102  32.681  0.00  0.00     0.187 A 
ATOM     36  C   UNL d   1      -0.538   2.468  32.054  0.00  0.00     0.111 A 
ATOM     37  C   UNL d   1      -0.293   4.987  33.020  0.00  0.00     0.197 A 
ATOM     38  O   UNL d   1       0.745   5.072  33.052  0.00  0.00    -0.306 OA
ATOM     39  C   UNL d   1       0.035   1.703  31.761  0.00  0.00     0.134 A 
ATOM     40  O   UNL d   1       1.583   3.366  32.398  0.00  0.00    -0.259 OA
ATOM     41  C   UNL d   1       3.865   2.658  32.126  0.00  0.00     0.133 A 
ATOM     42  C   UNL d   1       4.189   3.495  32.447  0.00  0.00     0.102 A 
BRANCH  35  43
ATOM     43  O   UNL d   1      -1.721   4.010  32.646  0.00  0.00    -0.388 OA
ATOM     44  H   UNL d   1      -1.979   3.556  32.312  0.00  0.00     0.210 HD
ENDBRANCH  35  43
BRANCH  36  45
ATOM     45  O   UNL d   1      -1.534   2.387  32.023  0.00  0.00    -0.357 OA
ATOM     46  H   UNL d   1      -1.883   2.889  31.920  0.00  0.00     0.217 HD
ENDBRANCH  36  45
BRANCH  39  47
ATOM     47  O   UNL d   1      -0.388   0.857  31.437  0.00  0.00    -0.356 OA
ATOM     48  H   UNL d   1      -0.945   0.873  31.165  0.00  0.00     0.218 HD
ENDBRANCH  39  47
BRANCH  32  49
ATOM     49  O   UNL d   1       1.605   1.020  31.499  0.00  0.00    -0.357 OA
ATOM     50  H   UNL d   1       2.082   0.837  31.850  0.00  0.00     0.217 HD
ENDBRANCH  32  49
BRANCH  30  51
ATOM     51  O   UNL d   1       2.606   1.606  31.724  0.00  0.00    -0.357 OA
ATOM     52  H   UNL d   1       3.013   1.189  31.512  0.00  0.00     0.217 HD
ENDBRANCH  30  51
BRANCH  41  53
ATOM     53  O   UNL d   1       4.514   1.948  31.854  0.00  0.00    -0.356 OA
ATOM     54  H   UNL d   1       4.328   1.478  31.495  0.00  0.00     0.218 HD
ENDBRANCH  41  53
BRANCH  42  55
ATOM     55  O   UNL d   1       5.174   3.653  32.508  0.00  0.00    -0.358 OA
ATOM     56  H   UNL d   1       5.571   3.191  32.388  0.00  0.00     0.217 HD
ENDBRANCH  42  55
ENDBRANCH   5  22
BRANCH   6  57
ATOM     57  O   UNL d   1       0.248   6.828  31.888  0.00  0.00    -0.307 OA
BRANCH  57  58
ATOM     58  C   UNL d   1       0.375   7.531  31.187  0.00  0.00     0.294 C 
ATOM     59  O   UNL d   1      -0.270   8.292  31.120  0.00  0.00    -0.259 OA
BRANCH  58  60
ATOM     60  C   UNL d   1       1.147   7.472  30.555  0.00  0.00     0.045 A 
ATOM     61  C   UNL d   1       1.890   8.139  30.608  0.00  0.00     0.057 A 
ATOM     62  C   UNL d   1       2.662   8.079  29.975  0.00  0.00     0.102 A 
ATOM     63  C   UNL d   1       2.691   7.351  29.289  0.00  0.00     0.132 A 
ATOM     64  C   UNL d   1       1.948   6.685  29.237  0.00  0.00     0.102 A 
ATOM     65  C   UNL d   1       1.176   6.744  29.869  0.00  0.00     0.057 A 
BRANCH  62  66
ATOM     66  O   UNL d   1       3.404   8.747  30.028  0.00  0.00    -0.358 OA
ATOM     67  H   UNL d   1       3.278   9.354  30.006  0.00  0.00     0.217 HD
ENDBRANCH  62  66
BRANCH  63  68
ATOM     68  O   UNL d   1       3.463   7.292  28.657  0.00  0.00    -0.356 OA
ATOM     69  H   UNL d   1       3.397   7.479  28.069  0.00  0.00     0.218 HD
ENDBRANCH  63  68
BRANCH  64  70
ATOM     70  O   UNL d   1       1.978   5.957  28.551  0.00  0.00    -0.358 OA
ATOM     71  H   UNL d   1       1.920   6.095  27.950  0.00  0.00     0.217 HD
ENDBRANCH  64  70
ENDBRANCH  58  60
ENDBRANCH  57  58
ENDBRANCH   6  57
BRANCH  15  72
ATOM     72  O   UNL d   1      -0.454   7.349  38.518  0.00  0.00    -0.357 OA
ATOM     73  H   UNL d   1      -0.493   7.969  38.507  0.00  0.00     0.217 HD
ENDBRANCH  15  72
BRANCH  17  74
ATOM     74  O   UNL d   1       0.584   4.379  36.897  0.00  0.00    -0.358 OA
ATOM     75  H   UNL d   1       1.132   4.230  37.146  0.00  0.00     0.217 HD
ENDBRANCH  17  74
BRANCH  16  76
ATOM     76  O   UNL d   1      -0.740   8.301  38.477  0.00  0.00    -0.357 OA
ATOM     77  H   UNL d   1      -1.128   7.837  38.612  0.00  0.00     0.217 HD
ENDBRANCH  16  76
BRANCH  19  78
ATOM     78  O   UNL d   1       0.134   5.390  38.621  0.00  0.00    -0.356 OA
ATOM     79  H   UNL d   1      -0.213   4.890  38.739  0.00  0.00     0.218 HD
ENDBRANCH  19  78
BRANCH  20  80
ATOM     80  O   UNL d   1      -1.331  10.260  38.407  0.00  0.00    -0.356 OA
ATOM     81  H   UNL d   1      -1.188  10.861  38.462  0.00  0.00     0.218 HD
ENDBRANCH  20  80
BRANCH  21  82
ATOM     82  O   UNL d   1      -1.472  11.209  36.596  0.00  0.00    -0.358 OA
ATOM     83  H   UNL d   1      -1.307  11.603  37.044  0.00  0.00     0.217 HD
ENDBRANCH  21  82
TORSDOF 20
ENDMDL
MODEL 2
REMARK VINA RESULT:    -0.005     47.351     50.408
REMARK INTER + INTRA:          13.115
REMARK INTER:                   0.000
REMARK INTRA:                  13.115
REMARK UNBOUND:                13.125
REMARK  20 active torsions:
REMARK  status: ('A' for Active; 'I' for Inactive)
REMARK    1  A    between atoms: O_4  and  C_30 
REMARK    2  A    between atoms: O_5  and  C_32 
REMARK    3  A    between atoms: O_5  and  C_48 
REMARK    4  A    between atoms: O_7  and  C_36 
REMARK    5  A    between atoms: O_9  and  C_39 
REMARK    6  A    between atoms: O_10  and  C_42 
REMARK    7  A    between atoms: O_12  and  C_44 
REMARK    8  A    between atoms: O_14  and  C_47 
REMARK    9  A    between atoms: O_15  and  C_49 
REMARK   10  A    between atoms: O_18  and  C_56 
REMARK   11  A    between atoms: O_19  and  C_57 
REMARK   12  A    between atoms: O_20  and  C_58 
REMARK   13  A    between atoms: O_21  and  C_60 
REMARK   14  A    between atoms: O_22  and  C_61 
REMARK   15  A    between atoms: O_23  and  C_64 
REMARK   16  A    between atoms: O_24  and  C_65 
REMARK   17  A    between atoms: O_25  and  C_66 
REMARK   18  A    between atoms: O_26  and  C_67 
REMARK   19  A    between atoms: C_28  and  C_29 
REMARK   20  A    between atoms: C_48  and  C_55 
ROOT
ATOM      1  O   UNL d   1       7.121 -22.431  -7.603  0.00  0.00    -0.306 OA
ATOM      2  O   UNL d   1       7.983 -21.222  -7.763  0.00  0.00    -0.315 OA
ATOM      3  O   UNL d   1       8.405 -21.340  -7.545  0.00  0.00    -0.259 OA
ATOM      4  O   UNL d   1       9.016 -22.512  -6.813  0.00  0.00    -0.259 OA
ATOM      5  C   UNL d   1       6.606 -21.732  -8.100  0.00  0.00     0.196 A 
ATOM      6  C   UNL d   1       6.798 -20.801  -8.411  0.00  0.00     0.188 A 
ATOM      7  C   UNL d   1       7.689 -20.386  -8.228  0.00  0.00     0.214 A 
ATOM      8  C   UNL d   1       8.057 -22.246  -7.306  0.00  0.00     0.294 A 
ATOM      9  C   UNL d   1       8.109 -23.160  -6.904  0.00  0.00     0.056 A 
ATOM     10  C   UNL d   1       8.948 -23.458  -6.445  0.00  0.00     0.030 A 
ATOM     11  C   UNL d   1       8.842 -21.630  -7.250  0.00  0.00     0.294 A 
ATOM     12  C   UNL d   1       9.732 -22.841  -6.389  0.00  0.00     0.030 A 
ATOM     13  C   UNL d   1       9.680 -21.927  -6.791  0.00  0.00     0.056 A 
ATOM     14  C   UNL d   1       7.284 -23.792  -6.970  0.00  0.00     0.058 A 
ATOM     15  C   UNL d   1       9.017 -24.407  -6.022  0.00  0.00     0.114 A 
ATOM     16  C   UNL d   1      10.598 -23.164  -5.909  0.00  0.00     0.114 A 
ATOM     17  C   UNL d   1       7.331 -24.745  -6.554  0.00  0.00     0.102 A 
ATOM     18  C   UNL d   1      10.489 -21.273  -6.741  0.00  0.00     0.058 A 
ATOM     19  C   UNL d   1       8.204 -25.055  -6.077  0.00  0.00     0.133 A 
ATOM     20  C   UNL d   1      11.420 -22.527  -5.847  0.00  0.00     0.133 A 
ATOM     21  C   UNL d   1      11.365 -21.575  -6.265  0.00  0.00     0.102 A 
ENDROOT
BRANCH   5  22
ATOM     22  C   UNL d   1       5.685 -22.034  -8.341  0.00  0.00     0.196 A 
ATOM     23  O   UNL d   1       5.065 -21.810  -7.571  0.00  0.00    -0.306 OA
ATOM     24  C   UNL d   1       4.103 -21.864  -7.252  0.00  0.00     0.294 A 
ATOM     25  O   UNL d   1       4.053 -21.456  -6.341  0.00  0.00    -0.259 OA
ATOM     26  C   UNL d   1       3.175 -22.176  -7.511  0.00  0.00     0.056 A 
ATOM     27  C   UNL d   1       2.640 -22.625  -8.246  0.00  0.00     0.030 A 
ATOM     28  C   UNL d   1       2.722 -21.906  -6.718  0.00  0.00     0.058 A 
ATOM     29  C   UNL d   1       2.708 -23.035  -9.171  0.00  0.00     0.031 A 
ATOM     30  C   UNL d   1       1.705 -22.759  -8.115  0.00  0.00     0.114 A 
ATOM     31  C   UNL d   1       3.689 -22.847  -9.206  0.00  0.00     0.065 A 
ATOM     32  C   UNL d   1       2.257 -23.483  -9.943  0.00  0.00     0.114 A 
ATOM     33  C   UNL d   1       4.219 -23.107 -10.013  0.00  0.00     0.026 A 
ATOM     34  C   UNL d   1       4.145 -22.380  -8.395  0.00  0.00     0.295 A 
ATOM     35  C   UNL d   1       5.243 -22.918 -10.065  0.00  0.00     0.187 A 
ATOM     36  C   UNL d   1       3.768 -23.555 -10.785  0.00  0.00     0.111 A 
ATOM     37  C   UNL d   1       5.719 -22.451  -9.265  0.00  0.00     0.197 A 
ATOM     38  O   UNL d   1       5.167 -22.180  -8.424  0.00  0.00    -0.306 OA
ATOM     39  C   UNL d   1       2.787 -23.743 -10.750  0.00  0.00     0.134 A 
ATOM     40  O   UNL d   1       3.243 -22.700  -8.684  0.00  0.00    -0.259 OA
ATOM     41  C   UNL d   1       1.283 -22.477  -7.308  0.00  0.00     0.133 A 
ATOM     42  C   UNL d   1       1.786 -22.055  -6.617  0.00  0.00     0.102 A 
BRANCH  35  43
ATOM     43  O   UNL d   1       5.763 -23.182 -10.877  0.00  0.00    -0.388 OA
ATOM     44  H   UNL d   1       5.799 -22.797 -11.361  0.00  0.00     0.210 HD
ENDBRANCH  35  43
BRANCH  36  45
ATOM     45  O   UNL d   1       4.299 -23.815 -11.592  0.00  0.00    -0.357 OA
ATOM     46  H   UNL d   1       4.734 -23.433 -11.813  0.00  0.00     0.217 HD
ENDBRANCH  36  45
BRANCH  39  47
ATOM     47  O   UNL d   1       2.336 -24.191 -11.522  0.00  0.00    -0.356 OA
ATOM     48  H   UNL d   1       2.139 -23.855 -12.004  0.00  0.00     0.218 HD
ENDBRANCH  39  47
BRANCH  32  49
ATOM     49  O   UNL d   1       1.275 -23.672  -9.908  0.00  0.00    -0.357 OA
ATOM     50  H   UNL d   1       0.987 -23.717  -9.360  0.00  0.00     0.217 HD
ENDBRANCH  32  49
BRANCH  30  51
ATOM     51  O   UNL d   1       1.163 -23.200  -8.830  0.00  0.00    -0.357 OA
ATOM     52  H   UNL d   1       0.630 -23.482  -8.684  0.00  0.00     0.217 HD
ENDBRANCH  30  51
BRANCH  41  53
ATOM     53  O   UNL d   1       0.301 -22.625  -7.186  0.00  0.00    -0.356 OA
ATOM     54  H   UNL d   1      -0.095 -22.464  -7.634  0.00  0.00     0.218 HD
ENDBRANCH  41  53
BRANCH  42  55
ATOM     55  O   UNL d   1       1.326 -21.765  -5.778  0.00  0.00    -0.358 OA
ATOM     56  H   UNL d   1       0.768 -21.995  -5.635  0.00  0.00     0.217 HD
ENDBRANCH  42  55
ENDBRANCH   5  22
BRANCH   6  57
ATOM     57  O   UNL d   1       6.098 -20.285  -8.905  0.00  0.00    -0.307 OA
BRANCH  57  58
ATOM     58  C   UNL d   1       6.169 -19.290  -8.979  0.00  0.00     0.294 C 
ATOM     59  O   UNL d   1       7.028 -18.870  -9.273  0.00  0.00    -0.259 OA
BRANCH  58  60
ATOM     60  C   UNL d   1       5.381 -18.716  -8.760  0.00  0.00     0.045 A 
ATOM     61  C   UNL d   1       5.399 -18.128  -7.952  0.00  0.00     0.057 A 
ATOM     62  C   UNL d   1       4.610 -17.553  -7.733  0.00  0.00     0.102 A 
ATOM     63  C   UNL d   1       3.802 -17.568  -8.323  0.00  0.00     0.132 A 
ATOM     64  C   UNL d   1       3.784 -18.156  -9.131  0.00  0.00     0.102 A 
ATOM     65  C   UNL d   1       4.573 -18.730  -9.350  0.00  0.00     0.057 A 
BRANCH  62  66
ATOM     66  O   UNL d   1       4.629 -16.965  -6.925  0.00  0.00    -0.358 OA
ATOM     67  H   UNL d   1       5.052 -17.060  -6.482  0.00  0.00     0.217 HD
ENDBRANCH  62  66
BRANCH  63  68
ATOM     68  O   UNL d   1       3.014 -16.993  -8.104  0.00  0.00    -0.356 OA
ATOM     69  H   UNL d   1       2.969 -16.424  -8.344  0.00  0.00     0.218 HD
ENDBRANCH  63  68
BRANCH  64  70
ATOM     70  O   UNL d   1       2.977 -18.170  -9.721  0.00  0.00    -0.358 OA
ATOM     71  H   UNL d   1       2.898 -18.630 -10.129  0.00  0.00     0.217 HD
ENDBRANCH  64  70
ENDBRANCH  58  60
ENDBRANCH  57  58
ENDBRANCH   6  57
BRANCH  15  72
ATOM     72  O   UNL d   1       9.859 -24.694  -5.566  0.00  0.00    -0.357 OA
ATOM     73  H   UNL d   1       9.895 -25.255  -5.303  0.00  0.00     0.217 HD
ENDBRANCH  15  72
BRANCH  17  74
ATOM     74  O   UNL d   1       6.544 -25.360  -6.612  0.00  0.00    -0.358 OA
ATOM     75  H   UNL d   1       6.412 -25.644  -7.147  0.00  0.00     0.217 HD
ENDBRANCH  17  74
BRANCH  16  76
ATOM     76  O   UNL d   1      10.640 -24.081  -5.510  0.00  0.00    -0.357 OA
ATOM     77  H   UNL d   1      10.751 -24.571  -5.872  0.00  0.00     0.217 HD
ENDBRANCH  16  76
BRANCH  19  78
ATOM     78  O   UNL d   1       8.260 -25.969  -5.674  0.00  0.00    -0.356 OA
ATOM     79  H   UNL d   1       8.517 -26.046  -5.115  0.00  0.00     0.218 HD
ENDBRANCH  19  78
BRANCH  20  80
ATOM     80  O   UNL d   1      12.256 -22.829  -5.387  0.00  0.00    -0.356 OA
ATOM     81  H   UNL d   1      12.223 -23.090  -4.826  0.00  0.00     0.218 HD
ENDBRANCH  20  80
BRANCH  21  82
ATOM     82  O   UNL d   1      12.148 -20.955  -6.211  0.00  0.00    -0.358 OA
ATOM     83  H   UNL d   1      12.177 -20.460  -6.582  0.00  0.00     0.217 HD
ENDBRANCH  21  82
TORSDOF 20
ENDMDL
MODEL 3
REMARK VINA RESULT:    -0.005     25.078     27.669
REMARK INTER + INTRA:          13.116
REMARK INTER:                   0.000
REMARK INTRA:                  13.116
REMARK UNBOUND:                13.125
REMARK  20 active torsions:
REMARK  status: ('A' for Active; 'I' for Inactive)
REMARK    1  A    between atoms: O_4  and  C_30 
REMARK    2  A    between atoms: O_5  and  C_32 
REMARK    3  A    between atoms: O_5  and  C_48 
REMARK    4  A    between atoms: O_7  and  C_36 
REMARK    5  A    between atoms: O_9  and  C_39 
REMARK    6  A    between atoms: O_10  and  C_42 
REMARK    7  A    between atoms: O_12  and  C_44 
REMARK    8  A    between atoms: O_14  and  C_47 
REMARK    9  A    between atoms: O_15  and  C_49 
REMARK   10  A    between atoms: O_18  and  C_56 
REMARK   11  A    between atoms: O_19  and  C_57 
REMARK   12  A    between atoms: O_20  and  C_58 
REMARK   13  A    between atoms: O_21  and  C_60 
REMARK   14  A    between atoms: O_22  and  C_61 
REMARK   15  A    between atoms: O_23  and  C_64 
REMARK   16  A    between atoms: O_24  and  C_65 
REMARK   17  A    between atoms: O_25  and  C_66 
REMARK   18  A    between atoms: O_26  and  C_67 
REMARK   19  A    between atoms: C_28  and  C_29 
REMARK   20  A    between atoms: C_48  and  C_55 
ROOT
ATOM      1  O   UNL d   1     -17.718   6.572  15.400  0.00  0.00    -0.306 OA
ATOM      2  O   UNL d   1     -17.307   7.369  16.594  0.00  0.00    -0.315 OA
ATOM      3  O   UNL d   1     -16.817   7.341  16.600  0.00  0.00    -0.259 OA
ATOM      4  O   UNL d   1     -15.706   6.709  15.796  0.00  0.00    -0.259 OA
ATOM      5  C   UNL d   1     -18.538   6.935  15.844  0.00  0.00     0.196 A 
ATOM      6  C   UNL d   1     -18.714   7.502  16.648  0.00  0.00     0.188 A 
ATOM      7  C   UNL d   1     -17.951   7.834  17.202  0.00  0.00     0.214 A 
ATOM      8  C   UNL d   1     -16.815   6.772  15.779  0.00  0.00     0.294 A 
ATOM      9  C   UNL d   1     -16.391   6.238  15.047  0.00  0.00     0.056 A 
ATOM     10  C   UNL d   1     -15.395   6.144  15.009  0.00  0.00     0.030 A 
ATOM     11  C   UNL d   1     -16.245   7.212  16.471  0.00  0.00     0.294 A 
ATOM     12  C   UNL d   1     -14.825   6.584  15.702  0.00  0.00     0.030 A 
ATOM     13  C   UNL d   1     -15.249   7.118  16.434  0.00  0.00     0.056 A 
ATOM     14  C   UNL d   1     -16.998   5.785  14.332  0.00  0.00     0.058 A 
ATOM     15  C   UNL d   1     -14.940   5.591  14.254  0.00  0.00     0.114 A 
ATOM     16  C   UNL d   1     -13.791   6.477  15.650  0.00  0.00     0.114 A 
ATOM     17  C   UNL d   1     -16.563   5.227  13.568  0.00  0.00     0.102 A 
ATOM     18  C   UNL d   1     -14.669   7.583  17.162  0.00  0.00     0.058 A 
ATOM     19  C   UNL d   1     -15.527   5.129  13.528  0.00  0.00     0.133 A 
ATOM     20  C   UNL d   1     -13.190   6.933  16.368  0.00  0.00     0.133 A 
ATOM     21  C   UNL d   1     -13.631   7.490  17.130  0.00  0.00     0.102 A 
ENDROOT
BRANCH   5  22
ATOM     22  C   UNL d   1     -19.378   6.666  15.373  0.00  0.00     0.196 A 
ATOM     23  O   UNL d   1     -19.574   7.357  14.657  0.00  0.00    -0.306 OA
ATOM     24  C   UNL d   1     -20.225   7.609  13.921  0.00  0.00     0.294 A 
ATOM     25  O   UNL d   1     -19.906   8.458  13.499  0.00  0.00    -0.259 OA
ATOM     26  C   UNL d   1     -21.078   7.324  13.453  0.00  0.00     0.056 A 
ATOM     27  C   UNL d   1     -21.801   6.614  13.435  0.00  0.00     0.030 A 
ATOM     28  C   UNL d   1     -21.130   8.044  12.831  0.00  0.00     0.058 A 
ATOM     29  C   UNL d   1     -22.112   5.754  13.874  0.00  0.00     0.031 A 
ATOM     30  C   UNL d   1     -22.504   6.693  12.796  0.00  0.00     0.114 A 
ATOM     31  C   UNL d   1     -21.333   5.766  14.500  0.00  0.00     0.065 A 
ATOM     32  C   UNL d   1     -22.781   5.013  13.923  0.00  0.00     0.114 A 
ATOM     33  C   UNL d   1     -21.223   5.038  15.177  0.00  0.00     0.026 A 
ATOM     34  C   UNL d   1     -20.643   6.545  14.437  0.00  0.00     0.295 A 
ATOM     35  C   UNL d   1     -20.417   5.038  15.837  0.00  0.00     0.187 A 
ATOM     36  C   UNL d   1     -21.892   4.297  15.226  0.00  0.00     0.111 A 
ATOM     37  C   UNL d   1     -19.715   5.806  15.791  0.00  0.00     0.197 A 
ATOM     38  O   UNL d   1     -19.829   6.565  15.086  0.00  0.00    -0.306 OA
ATOM     39  C   UNL d   1     -22.671   4.284  14.600  0.00  0.00     0.134 A 
ATOM     40  O   UNL d   1     -21.487   6.234  13.998  0.00  0.00    -0.259 OA
ATOM     41  C   UNL d   1     -22.526   7.426  12.187  0.00  0.00     0.133 A 
ATOM     42  C   UNL d   1     -21.847   8.094  12.204  0.00  0.00     0.102 A 
BRANCH  35  43
ATOM     43  O   UNL d   1     -20.317   4.304  16.509  0.00  0.00    -0.388 OA
ATOM     44  H   UNL d   1     -19.767   4.030  16.591  0.00  0.00     0.210 HD
ENDBRANCH  35  43
BRANCH  36  45
ATOM     45  O   UNL d   1     -21.783   3.569  15.903  0.00  0.00    -0.357 OA
ATOM     46  H   UNL d   1     -21.266   3.537  16.244  0.00  0.00     0.217 HD
ENDBRANCH  36  45
BRANCH  39  47
ATOM     47  O   UNL d   1     -23.341   3.543  14.649  0.00  0.00    -0.356 OA
ATOM     48  H   UNL d   1     -23.732   3.446  14.178  0.00  0.00     0.218 HD
ENDBRANCH  39  47
BRANCH  32  49
ATOM     49  O   UNL d   1     -23.560   5.000  13.297  0.00  0.00    -0.357 OA
ATOM     50  H   UNL d   1     -24.064   5.339  13.422  0.00  0.00     0.217 HD
ENDBRANCH  32  49
BRANCH  30  51
ATOM     51  O   UNL d   1     -23.225   6.001  12.765  0.00  0.00    -0.357 OA
ATOM     52  H   UNL d   1     -23.704   6.035  13.157  0.00  0.00     0.217 HD
ENDBRANCH  30  51
BRANCH  41  53
ATOM     53  O   UNL d   1     -23.271   7.495  11.523  0.00  0.00    -0.356 OA
ATOM     54  H   UNL d   1     -23.852   7.364  11.694  0.00  0.00     0.218 HD
ENDBRANCH  41  53
BRANCH  42  55
ATOM     55  O   UNL d   1     -21.887   8.856  11.558  0.00  0.00    -0.358 OA
ATOM     56  H   UNL d   1     -21.469   8.898  11.101  0.00  0.00     0.217 HD
ENDBRANCH  42  55
ENDBRANCH   5  22
BRANCH   6  57
ATOM     57  O   UNL d   1     -19.653   7.739  16.897  0.00  0.00    -0.307 OA
BRANCH  57  58
ATOM     58  C   UNL d   1     -19.829   8.507  17.514  0.00  0.00     0.294 C 
ATOM     59  O   UNL d   1     -19.326   8.582  18.375  0.00  0.00    -0.259 OA
BRANCH  58  60
ATOM     60  C   UNL d   1     -20.507   9.199  17.269  0.00  0.00     0.045 A 
ATOM     61  C   UNL d   1     -20.215  10.129  17.048  0.00  0.00     0.057 A 
ATOM     62  C   UNL d   1     -20.895  10.821  16.802  0.00  0.00     0.102 A 
ATOM     63  C   UNL d   1     -21.866  10.582  16.778  0.00  0.00     0.132 A 
ATOM     64  C   UNL d   1     -22.157   9.652  17.000  0.00  0.00     0.102 A 
ATOM     65  C   UNL d   1     -21.478   8.960  17.245  0.00  0.00     0.057 A 
BRANCH  62  66
ATOM     66  O   UNL d   1     -20.603  11.752  16.581  0.00  0.00    -0.358 OA
ATOM     67  H   UNL d   1     -20.259  11.857  16.076  0.00  0.00     0.217 HD
ENDBRANCH  62  66
BRANCH  63  68
ATOM     68  O   UNL d   1     -22.544  11.275  16.533  0.00  0.00    -0.356 OA
ATOM     69  H   UNL d   1     -22.940  11.169  16.068  0.00  0.00     0.218 HD
ENDBRANCH  63  68
BRANCH  64  70
ATOM     70  O   UNL d   1     -23.128   9.413  16.976  0.00  0.00    -0.358 OA
ATOM     71  H   UNL d   1     -23.331   8.979  16.583  0.00  0.00     0.217 HD
ENDBRANCH  64  70
ENDBRANCH  58  60
ENDBRANCH  57  58
ENDBRANCH   6  57
BRANCH  15  72
ATOM     72  O   UNL d   1     -13.944   5.503  14.226  0.00  0.00    -0.357 OA
ATOM     73  H   UNL d   1     -13.675   4.963  14.373  0.00  0.00     0.217 HD
ENDBRANCH  15  72
BRANCH  17  74
ATOM     74  O   UNL d   1     -17.137   4.787  12.876  0.00  0.00    -0.358 OA
ATOM     75  H   UNL d   1     -17.573   5.116  12.581  0.00  0.00     0.217 HD
ENDBRANCH  17  74
BRANCH  16  76
ATOM     76  O   UNL d   1     -13.377   5.941  14.915  0.00  0.00    -0.357 OA
ATOM     77  H   UNL d   1     -12.859   6.141  14.638  0.00  0.00     0.217 HD
ENDBRANCH  16  76
BRANCH  19  78
ATOM     78  O   UNL d   1     -15.099   4.595  12.799  0.00  0.00    -0.356 OA
ATOM     79  H   UNL d   1     -15.357   4.578  12.235  0.00  0.00     0.218 HD
ENDBRANCH  19  78
BRANCH  20  80
ATOM     80  O   UNL d   1     -12.195   6.837  16.327  0.00  0.00    -0.356 OA
ATOM     81  H   UNL d   1     -11.913   6.779  15.778  0.00  0.00     0.218 HD
ENDBRANCH  20  80
BRANCH  21  82
ATOM     82  O   UNL d   1     -13.064   7.932  17.825  0.00  0.00    -0.358 OA
ATOM     83  H   UNL d   1     -12.591   8.293  17.654  0.00  0.00     0.217 HD
ENDBRANCH  21  82
TORSDOF 20
ENDMDL
MODEL 4
REMARK VINA RESULT:    -0.005     38.658     42.833
REMARK INTER + INTRA:          13.116
REMARK INTER:                   0.000
REMARK INTRA:                  13.116
REMARK UNBOUND:                13.125
REMARK  20 active torsions:
REMARK  status: ('A' for Active; 'I' for Inactive)
REMARK    1  A    between atoms: O_4  and  C_30 
REMARK    2  A    between atoms: O_5  and  C_32 
REMARK    3  A    between atoms: O_5  and  C_48 
REMARK    4  A    between atoms: O_7  and  C_36 
REMARK    5  A    between atoms: O_9  and  C_39 
REMARK    6  A    between atoms: O_10  and  C_42 
REMARK    7  A    between atoms: O_12  and  C_44 
REMARK    8  A    between atoms: O_14  and  C_47 
REMARK    9  A    between atoms: O_15  and  C_49 
REMARK   10  A    between atoms: O_18  and  C_56 
REMARK   11  A    between atoms: O_19  and  C_57 
REMARK   12  A    between atoms: O_20  and  C_58 
REMARK   13  A    between atoms: O_21  and  C_60 
REMARK   14  A    between atoms: O_22  and  C_61 
REMARK   15  A    between atoms: O_23  and  C_64 
REMARK   16  A    between atoms: O_24  and  C_65 
REMARK   17  A    between atoms: O_25  and  C_66 
REMARK   18  A    between atoms: O_26  and  C_67 
REMARK   19  A    between atoms: C_28  and  C_29 
REMARK   20  A    between atoms: C_48  and  C_55 
ROOT
ATOM      1  O   UNL d   1      21.060   7.291  -4.964  0.00  0.00    -0.306 OA
ATOM      2  O   UNL d   1      19.879   7.611  -5.820  0.00  0.00    -0.315 OA
ATOM      3  O   UNL d   1      20.028   7.517  -6.277  0.00  0.00    -0.259 OA
ATOM      4  O   UNL d   1      21.265   7.029  -6.992  0.00  0.00    -0.259 OA
ATOM      5  C   UNL d   1      20.312   7.601  -4.377  0.00  0.00     0.196 A 
ATOM      6  C   UNL d   1      19.373   7.906  -4.532  0.00  0.00     0.188 A 
ATOM      7  C   UNL d   1      19.005   7.942  -5.462  0.00  0.00     0.214 A 
ATOM      8  C   UNL d   1      20.932   7.241  -5.954  0.00  0.00     0.294 A 
ATOM      9  C   UNL d   1      21.870   6.911  -6.058  0.00  0.00     0.056 A 
ATOM     10  C   UNL d   1      22.229   6.703  -6.969  0.00  0.00     0.030 A 
ATOM     11  C   UNL d   1      20.352   7.361  -6.759  0.00  0.00     0.294 A 
ATOM     12  C   UNL d   1      21.649   6.824  -7.774  0.00  0.00     0.030 A 
ATOM     13  C   UNL d   1      20.710   7.153  -7.670  0.00  0.00     0.056 A 
ATOM     14  C   UNL d   1      22.463   6.790  -5.211  0.00  0.00     0.058 A 
ATOM     15  C   UNL d   1      23.204   6.360  -7.094  0.00  0.00     0.114 A 
ATOM     16  C   UNL d   1      22.035   6.603  -8.716  0.00  0.00     0.114 A 
ATOM     17  C   UNL d   1      23.441   6.448  -5.312  0.00  0.00     0.102 A 
ATOM     18  C   UNL d   1      20.093   7.284  -8.498  0.00  0.00     0.058 A 
ATOM     19  C   UNL d   1      23.815   6.231  -6.260  0.00  0.00     0.133 A 
ATOM     20  C   UNL d   1      21.437   6.727  -9.559  0.00  0.00     0.133 A 
ATOM     21  C   UNL d   1      20.459   7.070  -9.450  0.00  0.00     0.102 A 
ENDROOT
BRANCH   5  22
ATOM     22  C   UNL d   1      20.562   7.608  -3.409  0.00  0.00     0.196 A 
ATOM     23  O   UNL d   1      20.978   8.508  -3.196  0.00  0.00    -0.306 OA
ATOM     24  C   UNL d   1      21.390   9.062  -2.453  0.00  0.00     0.294 A 
ATOM     25  O   UNL d   1      21.649   9.950  -2.834  0.00  0.00    -0.259 OA
ATOM     26  C   UNL d   1      21.638   9.054  -1.471  0.00  0.00     0.056 A 
ATOM     27  C   UNL d   1      21.625   8.487  -0.630  0.00  0.00     0.030 A 
ATOM     28  C   UNL d   1      22.003   9.933  -1.422  0.00  0.00     0.058 A 
ATOM     29  C   UNL d   1      21.357   7.582  -0.260  0.00  0.00     0.031 A 
ATOM     30  C   UNL d   1      21.979   8.855   0.174  0.00  0.00     0.114 A 
ATOM     31  C   UNL d   1      21.013   7.294  -1.154  0.00  0.00     0.065 A 
ATOM     32  C   UNL d   1      21.306   6.958   0.520  0.00  0.00     0.114 A 
ATOM     33  C   UNL d   1      20.618   6.383  -1.267  0.00  0.00     0.026 A 
ATOM     34  C   UNL d   1      21.072   7.954  -1.957  0.00  0.00     0.295 A 
ATOM     35  C   UNL d   1      20.255   6.068  -2.192  0.00  0.00     0.187 A 
ATOM     36  C   UNL d   1      20.567   5.759  -0.487  0.00  0.00     0.111 A 
ATOM     37  C   UNL d   1      20.305   6.712  -3.009  0.00  0.00     0.197 A 
ATOM     38  O   UNL d   1      20.716   7.662  -2.891  0.00  0.00    -0.306 OA
ATOM     39  C   UNL d   1      20.911   6.047   0.406  0.00  0.00     0.134 A 
ATOM     40  O   UNL d   1      21.304   7.911  -0.984  0.00  0.00    -0.259 OA
ATOM     41  C   UNL d   1      22.337   9.738   0.189  0.00  0.00     0.133 A 
ATOM     42  C   UNL d   1      22.349  10.272  -0.602  0.00  0.00     0.102 A 
BRANCH  35  43
ATOM     43  O   UNL d   1      19.862   5.154  -2.294  0.00  0.00    -0.388 OA
ATOM     44  H   UNL d   1      19.380   5.064  -2.674  0.00  0.00     0.210 HD
ENDBRANCH  35  43
BRANCH  36  45
ATOM     45  O   UNL d   1      20.172   4.847  -0.601  0.00  0.00    -0.357 OA
ATOM     46  H   UNL d   1      19.777   4.736  -1.066  0.00  0.00     0.217 HD
ENDBRANCH  36  45
BRANCH  39  47
ATOM     47  O   UNL d   1      20.860   5.423   1.186  0.00  0.00    -0.356 OA
ATOM     48  H   UNL d   1      20.519   4.907   1.149  0.00  0.00     0.218 HD
ENDBRANCH  39  47
BRANCH  32  49
ATOM     49  O   UNL d   1      21.650   7.246   1.414  0.00  0.00    -0.357 OA
ATOM     50  H   UNL d   1      21.259   7.474   1.838  0.00  0.00     0.217 HD
ENDBRANCH  32  49
BRANCH  30  51
ATOM     51  O   UNL d   1      21.974   8.310   1.013  0.00  0.00    -0.357 OA
ATOM     52  H   UNL d   1      22.510   8.165   1.291  0.00  0.00     0.217 HD
ENDBRANCH  30  51
BRANCH  41  53
ATOM     53  O   UNL d   1      22.704  10.110   1.041  0.00  0.00    -0.356 OA
ATOM     54  H   UNL d   1      22.322  10.254   1.507  0.00  0.00     0.218 HD
ENDBRANCH  41  53
BRANCH  42  55
ATOM     55  O   UNL d   1      22.729  11.196  -0.568  0.00  0.00    -0.358 OA
ATOM     56  H   UNL d   1      23.290  11.310  -0.808  0.00  0.00     0.217 HD
ENDBRANCH  42  55
ENDBRANCH   5  22
BRANCH   6  57
ATOM     57  O   UNL d   1      18.800   8.174  -3.758  0.00  0.00    -0.307 OA
BRANCH  57  58
ATOM     58  C   UNL d   1      17.979   8.725  -3.910  0.00  0.00     0.294 C 
ATOM     59  O   UNL d   1      17.320   8.459  -4.614  0.00  0.00    -0.259 OA
BRANCH  58  60
ATOM     60  C   UNL d   1      17.817   9.543  -3.358  0.00  0.00     0.045 A 
ATOM     61  C   UNL d   1      17.863  10.449  -3.780  0.00  0.00     0.057 A 
ATOM     62  C   UNL d   1      17.701  11.266  -3.226  0.00  0.00     0.102 A 
ATOM     63  C   UNL d   1      17.494  11.178  -2.251  0.00  0.00     0.132 A 
ATOM     64  C   UNL d   1      17.449  10.272  -1.831  0.00  0.00     0.102 A 
ATOM     65  C   UNL d   1      17.611   9.455  -2.383  0.00  0.00     0.057 A 
BRANCH  62  66
ATOM     66  O   UNL d   1      17.746  12.172  -3.648  0.00  0.00    -0.358 OA
ATOM     67  H   UNL d   1      17.533  12.668  -3.341  0.00  0.00     0.217 HD
ENDBRANCH  62  66
BRANCH  63  68
ATOM     68  O   UNL d   1      17.333  11.995  -1.699  0.00  0.00    -0.356 OA
ATOM     69  H   UNL d   1      17.528  12.015  -1.111  0.00  0.00     0.218 HD
ENDBRANCH  63  68
BRANCH  64  70
ATOM     70  O   UNL d   1      17.243  10.184  -0.856  0.00  0.00    -0.358 OA
ATOM     71  H   UNL d   1      17.468   9.705  -0.533  0.00  0.00     0.217 HD
ENDBRANCH  64  70
ENDBRANCH  58  60
ENDBRANCH  57  58
ENDBRANCH   6  57
BRANCH  15  72
ATOM     72  O   UNL d   1      23.552   6.154  -8.008  0.00  0.00    -0.357 OA
ATOM     73  H   UNL d   1      24.126   5.929  -8.079  0.00  0.00     0.217 HD
ENDBRANCH  15  72
BRANCH  17  74
ATOM     74  O   UNL d   1      24.019   6.328  -4.504  0.00  0.00    -0.358 OA
ATOM     75  H   UNL d   1      24.633   6.268  -4.569  0.00  0.00     0.217 HD
ENDBRANCH  17  74
BRANCH  16  76
ATOM     76  O   UNL d   1      22.975   6.275  -8.809  0.00  0.00    -0.357 OA
ATOM     77  H   UNL d   1      23.429   6.671  -8.951  0.00  0.00     0.217 HD
ENDBRANCH  16  76
BRANCH  19  78
ATOM     78  O   UNL d   1      24.752   5.902  -6.368  0.00  0.00    -0.356 OA
ATOM     79  H   UNL d   1      25.100   5.784  -5.869  0.00  0.00     0.218 HD
ENDBRANCH  19  78
BRANCH  20  80
ATOM     80  O   UNL d   1      21.799   6.517 -10.468  0.00  0.00    -0.356 OA
ATOM     81  H   UNL d   1      22.102   5.985 -10.565  0.00  0.00     0.218 HD
ENDBRANCH  20  80
BRANCH  21  82
ATOM     82  O   UNL d   1      19.876   7.192 -10.253  0.00  0.00    -0.358 OA
ATOM     83  H   UNL d   1      19.609   7.740 -10.362  0.00  0.00     0.217 HD
ENDBRANCH  21  82
TORSDOF 20
ENDMDL
MODEL 5
REMARK VINA RESULT:    -0.003     22.680     25.933
REMARK INTER + INTRA:          13.119
REMARK INTER:                   0.000
REMARK INTRA:                  13.119
REMARK UNBOUND:                13.125
REMARK  20 active torsions:
REMARK  status: ('A' for Active; 'I' for Inactive)
REMARK    1  A    between atoms: O_4  and  C_30 
REMARK    2  A    between atoms: O_5  and  C_32 
REMARK    3  A    between atoms: O_5  and  C_48 
REMARK    4  A    between atoms: O_7  and  C_36 
REMARK    5  A    between atoms: O_9  and  C_39 
REMARK    6  A    between atoms: O_10  and  C_42 
REMARK    7  A    between atoms: O_12  and  C_44 
REMARK    8  A    between atoms: O_14  and  C_47 
REMARK    9  A    between atoms: O_15  and  C_49 
REMARK   10  A    between atoms: O_18  and  C_56 
REMARK   11  A    between atoms: O_19  and  C_57 
REMARK   12  A    between atoms: O_20  and  C_58 
REMARK   13  A    between atoms: O_21  and  C_60 
REMARK   14  A    between atoms: O_22  and  C_61 
REMARK   15  A    between atoms: O_23  and  C_64 
REMARK   16  A    between atoms: O_24  and  C_65 
REMARK   17  A    between atoms: O_25  and  C_66 
REMARK   18  A    between atoms: O_26  and  C_67 
REMARK   19  A    between atoms: C_28  and  C_29 
REMARK   20  A    between atoms: C_48  and  C_55 
ROOT
ATOM      1  O   UNL d   1      -4.389  29.536  28.772  0.00  0.00    -0.306 OA
ATOM      2  O   UNL d   1      -3.788  28.785  29.915  0.00  0.00    -0.315 OA
ATOM      3  O   UNL d   1      -4.172  28.609  30.164  0.00  0.00    -0.259 OA
ATOM      4  O   UNL d   1      -5.680  28.626  30.087  0.00  0.00    -0.259 OA
ATOM      5  C   UNL d   1      -3.393  29.600  28.711  0.00  0.00     0.196 A 
ATOM      6  C   UNL d   1      -2.628  29.254  29.255  0.00  0.00     0.188 A 
ATOM      7  C   UNL d   1      -2.803  28.704  30.071  0.00  0.00     0.214 A 
ATOM      8  C   UNL d   1      -4.813  29.025  29.520  0.00  0.00     0.294 A 
ATOM      9  C   UNL d   1      -5.718  29.247  29.157  0.00  0.00     0.056 A 
ATOM     10  C   UNL d   1      -6.539  28.915  29.624  0.00  0.00     0.030 A 
ATOM     11  C   UNL d   1      -4.728  28.473  30.348  0.00  0.00     0.294 A 
ATOM     12  C   UNL d   1      -6.454  28.362  30.453  0.00  0.00     0.030 A 
ATOM     13  C   UNL d   1      -5.548  28.141  30.815  0.00  0.00     0.056 A 
ATOM     14  C   UNL d   1      -5.792  29.824  28.293  0.00  0.00     0.058 A 
ATOM     15  C   UNL d   1      -7.488  29.138  29.258  0.00  0.00     0.114 A 
ATOM     16  C   UNL d   1      -7.316  28.024  30.928  0.00  0.00     0.114 A 
ATOM     17  C   UNL d   1      -6.731  30.058  27.910  0.00  0.00     0.102 A 
ATOM     18  C   UNL d   1      -5.443  27.566  31.677  0.00  0.00     0.058 A 
ATOM     19  C   UNL d   1      -7.586  29.713  28.396  0.00  0.00     0.133 A 
ATOM     20  C   UNL d   1      -7.235  27.448  31.792  0.00  0.00     0.133 A 
ATOM     21  C   UNL d   1      -6.292  27.217  32.169  0.00  0.00     0.102 A 
ENDROOT
BRANCH   5  22
ATOM     22  C   UNL d   1      -3.091  30.135  27.923  0.00  0.00     0.196 A 
ATOM     23  O   UNL d   1      -3.043  31.109  28.201  0.00  0.00    -0.306 OA
ATOM     24  C   UNL d   1      -2.823  32.043  27.872  0.00  0.00     0.294 A 
ATOM     25  O   UNL d   1      -2.959  32.681  28.630  0.00  0.00    -0.259 OA
ATOM     26  C   UNL d   1      -2.516  32.572  27.064  0.00  0.00     0.056 A 
ATOM     27  C   UNL d   1      -2.243  32.491  26.091  0.00  0.00     0.030 A 
ATOM     28  C   UNL d   1      -2.519  33.436  27.466  0.00  0.00     0.058 A 
ATOM     29  C   UNL d   1      -2.109  31.831  25.332  0.00  0.00     0.031 A 
ATOM     30  C   UNL d   1      -1.999  33.282  25.617  0.00  0.00     0.114 A 
ATOM     31  C   UNL d   1      -2.381  31.069  25.919  0.00  0.00     0.065 A 
ATOM     32  C   UNL d   1      -1.853  31.663  24.381  0.00  0.00     0.114 A 
ATOM     33  C   UNL d   1      -2.398  30.138  25.554  0.00  0.00     0.026 A 
ATOM     34  C   UNL d   1      -2.645  31.259  26.908  0.00  0.00     0.295 A 
ATOM     35  C   UNL d   1      -2.680  29.333  26.153  0.00  0.00     0.187 A 
ATOM     36  C   UNL d   1      -2.142  29.970  24.602  0.00  0.00     0.111 A 
ATOM     37  C   UNL d   1      -2.948  29.501  27.145  0.00  0.00     0.197 A 
ATOM     38  O   UNL d   1      -2.930  30.471  27.526  0.00  0.00    -0.306 OA
ATOM     39  C   UNL d   1      -1.870  30.732  24.015  0.00  0.00     0.134 A 
ATOM     40  O   UNL d   1      -2.341  31.749  26.091  0.00  0.00    -0.259 OA
ATOM     41  C   UNL d   1      -2.013  34.131  26.050  0.00  0.00     0.133 A 
ATOM     42  C   UNL d   1      -2.270  34.207  26.965  0.00  0.00     0.102 A 
BRANCH  35  43
ATOM     43  O   UNL d   1      -2.693  28.407  25.777  0.00  0.00    -0.388 OA
ATOM     44  H   UNL d   1      -2.182  28.058  25.793  0.00  0.00     0.210 HD
ENDBRANCH  35  43
BRANCH  36  45
ATOM     45  O   UNL d   1      -2.159  29.039  24.237  0.00  0.00    -0.357 OA
ATOM     46  H   UNL d   1      -1.866  28.583  24.537  0.00  0.00     0.217 HD
ENDBRANCH  36  45
BRANCH  39  47
ATOM     47  O   UNL d   1      -1.614  30.564  23.063  0.00  0.00    -0.356 OA
ATOM     48  H   UNL d   1      -2.048  30.567  22.620  0.00  0.00     0.218 HD
ENDBRANCH  39  47
BRANCH  32  49
ATOM     49  O   UNL d   1      -1.580  32.425  23.794  0.00  0.00    -0.357 OA
ATOM     50  H   UNL d   1      -1.229  32.882  24.023  0.00  0.00     0.217 HD
ENDBRANCH  32  49
BRANCH  30  51
ATOM     51  O   UNL d   1      -1.727  33.220  24.657  0.00  0.00    -0.357 OA
ATOM     52  H   UNL d   1      -1.658  32.664  24.390  0.00  0.00     0.217 HD
ENDBRANCH  30  51
BRANCH  41  53
ATOM     53  O   UNL d   1      -1.755  34.951  25.539  0.00  0.00    -0.356 OA
ATOM     54  H   UNL d   1      -1.727  35.499  25.826  0.00  0.00     0.218 HD
ENDBRANCH  41  53
BRANCH  42  55
ATOM     55  O   UNL d   1      -2.279  35.106  27.402  0.00  0.00    -0.358 OA
ATOM     56  H   UNL d   1      -2.168  35.156  28.011  0.00  0.00     0.217 HD
ENDBRANCH  42  55
ENDBRANCH   5  22
BRANCH   6  57
ATOM     57  O   UNL d   1      -1.688  29.459  28.983  0.00  0.00    -0.307 OA
BRANCH  57  58
ATOM     58  C   UNL d   1      -0.943  29.360  29.643  0.00  0.00     0.294 C 
ATOM     59  O   UNL d   1      -0.859  28.522  30.181  0.00  0.00    -0.259 OA
BRANCH  58  60
ATOM     60  C   UNL d   1      -0.283  30.101  29.764  0.00  0.00     0.045 A 
ATOM     61  C   UNL d   1      -0.264  30.620  30.618  0.00  0.00     0.057 A 
ATOM     62  C   UNL d   1       0.397  31.361  30.739  0.00  0.00     0.102 A 
ATOM     63  C   UNL d   1       1.040  31.582  30.005  0.00  0.00     0.132 A 
ATOM     64  C   UNL d   1       1.021  31.063  29.151  0.00  0.00     0.102 A 
ATOM     65  C   UNL d   1       0.360  30.322  29.030  0.00  0.00     0.057 A 
BRANCH  62  66
ATOM     66  O   UNL d   1       0.415  31.880  31.593  0.00  0.00    -0.358 OA
ATOM     67  H   UNL d   1      -0.091  32.185  31.782  0.00  0.00     0.217 HD
ENDBRANCH  62  66
BRANCH  63  68
ATOM     68  O   UNL d   1       1.701  32.323  30.126  0.00  0.00    -0.356 OA
ATOM     69  H   UNL d   1       1.870  32.496  30.697  0.00  0.00     0.218 HD
ENDBRANCH  63  68
BRANCH  64  70
ATOM     70  O   UNL d   1       1.663  31.284  28.418  0.00  0.00    -0.358 OA
ATOM     71  H   UNL d   1       1.516  31.713  27.995  0.00  0.00     0.217 HD
ENDBRANCH  64  70
ENDBRANCH  58  60
ENDBRANCH  57  58
ENDBRANCH   6  57
BRANCH  15  72
ATOM     72  O   UNL d   1      -8.301  28.801  29.733  0.00  0.00    -0.357 OA
ATOM     73  H   UNL d   1      -8.798  28.621  29.407  0.00  0.00     0.217 HD
ENDBRANCH  15  72
BRANCH  17  74
ATOM     74  O   UNL d   1      -6.813  30.612  27.080  0.00  0.00    -0.358 OA
ATOM     75  H   UNL d   1      -6.759  30.344  26.524  0.00  0.00     0.217 HD
ENDBRANCH  17  74
BRANCH  16  76
ATOM     76  O   UNL d   1      -8.217  28.251  30.557  0.00  0.00    -0.357 OA
ATOM     77  H   UNL d   1      -8.654  27.814  30.516  0.00  0.00     0.217 HD
ENDBRANCH  16  76
BRANCH  19  78
ATOM     78  O   UNL d   1      -8.492  29.932  28.036  0.00  0.00    -0.356 OA
ATOM     79  H   UNL d   1      -8.673  29.704  27.489  0.00  0.00     0.218 HD
ENDBRANCH  19  78
BRANCH  20  80
ATOM     80  O   UNL d   1      -8.058  27.118  32.255  0.00  0.00    -0.356 OA
ATOM     81  H   UNL d   1      -8.618  27.289  32.050  0.00  0.00     0.218 HD
ENDBRANCH  20  80
BRANCH  21  82
ATOM     82  O   UNL d   1      -6.203  26.664  32.998  0.00  0.00    -0.358 OA
ATOM     83  H   UNL d   1      -5.929  26.902  33.500  0.00  0.00     0.217 HD
ENDBRANCH  21  82
TORSDOF 20
ENDMDL
