MODEL 1
REMARK VINA RESULT:    -5.281      0.000      0.000
REMARK INTER + INTRA:          -5.708
REMARK INTER:                  -6.914
REMARK INTRA:                   1.206
REMARK UNBOUND:                 0.963
REMARK  6 active torsions:
REMARK  status: ('A' for Active; 'I' for Inactive)
REMARK    1  A    between atoms: O_1  and  C_12 
REMARK    2  A    between atoms: O_1  and  C_13 
REMARK    3  A    between atoms: O_2  and  C_9 
REMARK    4  A    between atoms: O_3  and  C_10 
REMARK    5  A    between atoms: O_4  and  C_11 
REMARK    6  A    between atoms: C_6  and  C_12 
ROOT
ATOM      1  C   UNL d   1      14.929  -3.137   1.319  0.00  0.00     0.044 A 
ATOM      2  C   UNL d   1      15.605  -3.026   2.048  0.00  0.00     0.057 A 
ATOM      3  C   UNL d   1      14.440  -2.339   0.965  0.00  0.00     0.057 A 
ATOM      4  C   UNL d   1      14.627  -1.431   1.340  0.00  0.00     0.102 A 
ATOM      5  C   UNL d   1      15.792  -2.118   2.423  0.00  0.00     0.102 A 
ATOM      6  C   UNL d   1      15.303  -1.321   2.069  0.00  0.00     0.132 A 
ENDROOT
BRANCH   1   7
ATOM      7  C   UNL d   1      14.742  -4.045   0.944  0.00  0.00     0.293 C 
ATOM      8  O   UNL d   1      15.188  -4.849   1.337  0.00  0.00    -0.259 OA
BRANCH   7   9
ATOM      9  O   UNL d   1      14.110  -4.148   0.177  0.00  0.00    -0.318 OA
BRANCH   9  10
ATOM     10  C   UNL d   1      13.891  -5.060  -0.171  0.00  0.00     0.174 C 
ATOM     11  C   UNL d   1      13.450  -5.162  -1.063  0.00  0.00     0.034 C 
ENDBRANCH   9  10
ENDBRANCH   7   9
ENDBRANCH   1   7
BRANCH   5  12
ATOM     12  O   UNL d   1      16.467  -2.007   3.152  0.00  0.00    -0.358 OA
ATOM     13  H   UNL d   1      16.299  -1.763   3.696  0.00  0.00     0.217 HD
ENDBRANCH   5  12
BRANCH   4  14
ATOM     14  O   UNL d   1      14.138  -0.634   0.987  0.00  0.00    -0.358 OA
ATOM     15  H   UNL d   1      14.402  -0.073   1.009  0.00  0.00     0.217 HD
ENDBRANCH   4  14
BRANCH   6  16
ATOM     16  O   UNL d   1      15.489  -0.413   2.444  0.00  0.00    -0.356 OA
ATOM     17  H   UNL d   1      15.292   0.093   2.145  0.00  0.00     0.218 HD
ENDBRANCH   6  16
TORSDOF 6
ENDMDL
MODEL 2
REMARK VINA RESULT:    -5.193      2.302      3.753
REMARK INTER + INTRA:          -5.596
REMARK INTER:                  -6.465
REMARK INTRA:                   0.869
REMARK UNBOUND:                 0.963
REMARK  6 active torsions:
REMARK  status: ('A' for Active; 'I' for Inactive)
REMARK    1  A    between atoms: O_1  and  C_12 
REMARK    2  A    between atoms: O_1  and  C_13 
REMARK    3  A    between atoms: O_2  and  C_9 
REMARK    4  A    between atoms: O_3  and  C_10 
REMARK    5  A    between atoms: O_4  and  C_11 
REMARK    6  A    between atoms: C_6  and  C_12 
ROOT
ATOM      1  C   UNL d   1      16.423  -0.639   2.662  0.00  0.00     0.044 A 
ATOM      2  C   UNL d   1      16.658   0.059   1.986  0.00  0.00     0.057 A 
ATOM      3  C   UNL d   1      17.041  -0.824   3.426  0.00  0.00     0.057 A 
ATOM      4  C   UNL d   1      17.895  -0.311   3.514  0.00  0.00     0.102 A 
ATOM      5  C   UNL d   1      17.511   0.572   2.074  0.00  0.00     0.102 A 
ATOM      6  C   UNL d   1      18.130   0.388   2.838  0.00  0.00     0.132 A 
ENDROOT
BRANCH   1   7
ATOM      7  C   UNL d   1      15.569  -1.153   2.575  0.00  0.00     0.293 C 
ATOM      8  O   UNL d   1      14.734  -0.813   3.007  0.00  0.00    -0.259 OA
BRANCH   7   9
ATOM      9  O   UNL d   1      15.551  -2.007   2.054  0.00  0.00    -0.318 OA
BRANCH   9  10
ATOM     10  C   UNL d   1      14.676  -2.439   1.834  0.00  0.00     0.174 C 
ATOM     11  C   UNL d   1      14.651  -3.241   1.238  0.00  0.00     0.034 C 
ENDBRANCH   9  10
ENDBRANCH   7   9
ENDBRANCH   1   7
BRANCH   5  12
ATOM     12  O   UNL d   1      17.746   1.271   1.398  0.00  0.00    -0.358 OA
ATOM     13  H   UNL d   1      17.757   1.127   0.795  0.00  0.00     0.217 HD
ENDBRANCH   5  12
BRANCH   4  14
ATOM     14  O   UNL d   1      18.513  -0.495   4.277  0.00  0.00    -0.358 OA
ATOM     15  H   UNL d   1      18.779  -0.025   4.582  0.00  0.00     0.217 HD
ENDBRANCH   4  14
BRANCH   6  16
ATOM     16  O   UNL d   1      18.983   0.901   2.925  0.00  0.00    -0.356 OA
ATOM     17  H   UNL d   1      19.386   0.759   3.375  0.00  0.00     0.218 HD
ENDBRANCH   6  16
TORSDOF 6
ENDMDL
MODEL 3
REMARK VINA RESULT:    -5.175     25.340     27.255
REMARK INTER + INTRA:          -5.574
REMARK INTER:                  -6.558
REMARK INTRA:                   0.984
REMARK UNBOUND:                 0.963
REMARK  6 active torsions:
REMARK  status: ('A' for Active; 'I' for Inactive)
REMARK    1  A    between atoms: O_1  and  C_12 
REMARK    2  A    between atoms: O_1  and  C_13 
REMARK    3  A    between atoms: O_2  and  C_9 
REMARK    4  A    between atoms: O_3  and  C_10 
REMARK    5  A    between atoms: O_4  and  C_11 
REMARK    6  A    between atoms: C_6  and  C_12 
ROOT
ATOM      1  C   UNL d   1      20.595  -8.874 -24.248  0.00  0.00     0.044 A 
ATOM      2  C   UNL d   1      20.537  -9.432 -25.076  0.00  0.00     0.057 A 
ATOM      3  C   UNL d   1      21.422  -8.344 -24.060  0.00  0.00     0.057 A 
ATOM      4  C   UNL d   1      22.190  -8.372 -24.700  0.00  0.00     0.102 A 
ATOM      5  C   UNL d   1      21.305  -9.459 -25.716  0.00  0.00     0.102 A 
ATOM      6  C   UNL d   1      22.132  -8.930 -25.528  0.00  0.00     0.132 A 
ENDROOT
BRANCH   1   7
ATOM      7  C   UNL d   1      19.827  -8.846 -23.609  0.00  0.00     0.293 C 
ATOM      8  O   UNL d   1      19.223  -8.050 -23.587  0.00  0.00    -0.259 OA
BRANCH   7   9
ATOM      9  O   UNL d   1      19.663  -9.615 -22.991  0.00  0.00    -0.318 OA
BRANCH   9  10
ATOM     10  C   UNL d   1      18.772  -9.720 -22.549  0.00  0.00     0.174 C 
ATOM     11  C   UNL d   1      18.468 -10.623 -22.245  0.00  0.00     0.034 C 
ENDBRANCH   9  10
ENDBRANCH   7   9
ENDBRANCH   1   7
BRANCH   5  12
ATOM     12  O   UNL d   1      21.246 -10.017 -26.544  0.00  0.00    -0.358 OA
ATOM     13  H   UNL d   1      20.866  -9.849 -27.004  0.00  0.00     0.217 HD
ENDBRANCH   5  12
BRANCH   4  14
ATOM     14  O   UNL d   1      23.017  -7.842 -24.511  0.00  0.00    -0.358 OA
ATOM     15  H   UNL d   1      23.148  -7.667 -23.931  0.00  0.00     0.217 HD
ENDBRANCH   4  14
BRANCH   6  16
ATOM     16  O   UNL d   1      22.900  -8.957 -26.167  0.00  0.00    -0.356 OA
ATOM     17  H   UNL d   1      22.970  -9.443 -26.546  0.00  0.00     0.218 HD
ENDBRANCH   6  16
TORSDOF 6
ENDMDL
MODEL 4
REMARK VINA RESULT:    -5.102      1.569      2.280
REMARK INTER + INTRA:          -5.481
REMARK INTER:                  -6.353
REMARK INTRA:                   0.872
REMARK UNBOUND:                 0.963
REMARK  6 active torsions:
REMARK  status: ('A' for Active; 'I' for Inactive)
REMARK    1  A    between atoms: O_1  and  C_12 
REMARK    2  A    between atoms: O_1  and  C_13 
REMARK    3  A    between atoms: O_2  and  C_9 
REMARK    4  A    between atoms: O_3  and  C_10 
REMARK    5  A    between atoms: O_4  and  C_11 
REMARK    6  A    between atoms: C_6  and  C_12 
ROOT
ATOM      1  C   UNL d   1      15.307  -2.959   1.851  0.00  0.00     0.044 A 
ATOM      2  C   UNL d   1      14.596  -2.603   1.245  0.00  0.00     0.057 A 
ATOM      3  C   UNL d   1      15.864  -2.329   2.393  0.00  0.00     0.057 A 
ATOM      4  C   UNL d   1      15.710  -1.343   2.327  0.00  0.00     0.102 A 
ATOM      5  C   UNL d   1      14.442  -1.617   1.180  0.00  0.00     0.102 A 
ATOM      6  C   UNL d   1      14.999  -0.987   1.721  0.00  0.00     0.132 A 
ENDROOT
BRANCH   1   7
ATOM      7  C   UNL d   1      15.461  -3.945   1.917  0.00  0.00     0.293 C 
ATOM      8  O   UNL d   1      16.208  -4.369   1.404  0.00  0.00    -0.259 OA
BRANCH   7   9
ATOM      9  O   UNL d   1      14.869  -4.506   2.494  0.00  0.00    -0.318 OA
BRANCH   9  10
ATOM     10  C   UNL d   1      15.022  -5.492   2.559  0.00  0.00     0.174 C 
ATOM     11  C   UNL d   1      14.369  -6.069   3.050  0.00  0.00     0.034 C 
ENDBRANCH   9  10
ENDBRANCH   7   9
ENDBRANCH   1   7
BRANCH   5  12
ATOM     12  O   UNL d   1      13.731  -1.261   0.574  0.00  0.00    -0.358 OA
ATOM     13  H   UNL d   1      13.686  -1.471  -0.008  0.00  0.00     0.217 HD
ENDBRANCH   5  12
BRANCH   4  14
ATOM     14  O   UNL d   1      16.267  -0.713   2.869  0.00  0.00    -0.358 OA
ATOM     15  H   UNL d   1      16.071  -0.526   3.426  0.00  0.00     0.217 HD
ENDBRANCH   4  14
BRANCH   6  16
ATOM     16  O   UNL d   1      14.845  -0.001   1.656  0.00  0.00    -0.356 OA
ATOM     17  H   UNL d   1      15.302   0.372   1.464  0.00  0.00     0.218 HD
ENDBRANCH   6  16
TORSDOF 6
ENDMDL
MODEL 5
REMARK VINA RESULT:    -4.910     47.817     48.579
REMARK INTER + INTRA:          -5.238
REMARK INTER:                  -6.177
REMARK INTRA:                   0.939
REMARK UNBOUND:                 0.963
REMARK  6 active torsions:
REMARK  status: ('A' for Active; 'I' for Inactive)
REMARK    1  A    between atoms: O_1  and  C_12 
REMARK    2  A    between atoms: O_1  and  C_13 
REMARK    3  A    between atoms: O_2  and  C_9 
REMARK    4  A    between atoms: O_3  and  C_10 
REMARK    5  A    between atoms: O_4  and  C_11 
REMARK    6  A    between atoms: C_6  and  C_12 
ROOT
ATOM      1  C   UNL d   1      40.426 -12.203 -38.519  0.00  0.00     0.044 A 
ATOM      2  C   UNL d   1      39.738 -11.616 -38.947  0.00  0.00     0.057 A 
ATOM      3  C   UNL d   1      40.367 -13.196 -38.619  0.00  0.00     0.057 A 
ATOM      4  C   UNL d   1      39.620 -13.602 -39.146  0.00  0.00     0.102 A 
ATOM      5  C   UNL d   1      38.992 -12.022 -39.474  0.00  0.00     0.102 A 
ATOM      6  C   UNL d   1      38.933 -13.015 -39.573  0.00  0.00     0.132 A 
ENDROOT
BRANCH   1   7
ATOM      7  C   UNL d   1      41.172 -11.796 -37.992  0.00  0.00     0.293 C 
ATOM      8  O   UNL d   1      40.988 -11.381 -37.102  0.00  0.00    -0.259 OA
BRANCH   7   9
ATOM      9  O   UNL d   1      42.104 -11.806 -38.356  0.00  0.00    -0.318 OA
BRANCH   9  10
ATOM     10  C   UNL d   1      42.877 -11.605 -37.755  0.00  0.00     0.174 C 
ATOM     11  C   UNL d   1      43.799 -11.526 -38.135  0.00  0.00     0.034 C 
ENDBRANCH   9  10
ENDBRANCH   7   9
ENDBRANCH   1   7
BRANCH   5  12
ATOM     12  O   UNL d   1      38.304 -11.435 -39.901  0.00  0.00    -0.358 OA
ATOM     13  H   UNL d   1      37.853 -11.185 -39.557  0.00  0.00     0.217 HD
ENDBRANCH   5  12
BRANCH   4  14
ATOM     14  O   UNL d   1      39.561 -14.595 -39.245  0.00  0.00    -0.358 OA
ATOM     15  H   UNL d   1      39.368 -14.944 -38.770  0.00  0.00     0.217 HD
ENDBRANCH   4  14
BRANCH   6  16
ATOM     16  O   UNL d   1      38.186 -13.421 -40.100  0.00  0.00    -0.356 OA
ATOM     17  H   UNL d   1      37.665 -13.596 -39.814  0.00  0.00     0.218 HD
ENDBRANCH   6  16
TORSDOF 6
ENDMDL
