MODEL 1
REMARK VINA RESULT:   -10.872      0.000      0.000
REMARK INTER + INTRA:          -5.805
REMARK INTER:                 -14.327
REMARK INTRA:                   8.522
REMARK UNBOUND:                 8.880
REMARK  9 active torsions:
REMARK  status: ('A' for Active; 'I' for Inactive)
REMARK    1  A    between atoms: O_3  and  C_17 
REMARK    2  A    between atoms: O_4  and  C_18 
REMARK    3  A    between atoms: O_5  and  C_19 
REMARK    4  A    between atoms: O_7  and  C_32 
REMARK    5  A    between atoms: O_9  and  C_36 
REMARK    6  A    between atoms: O_10  and  C_40 
REMARK    7  A    between atoms: C_11  and  C_13 
REMARK    8  A    between atoms: C_15  and  C_20 
REMARK    9  A    between atoms: C_22  and  C_29 
ROOT
ATOM      1  O   UNL d   1     -25.637  16.782 -33.369  0.00  0.00    -0.308 OA
ATOM      2  O   UNL d   1     -23.910  14.954 -35.129  0.00  0.00    -0.287 OA
ATOM      3  C   UNL d   1     -26.279  15.345 -32.580  0.00  0.00     0.045 A 
ATOM      4  C   UNL d   1     -25.671  15.746 -33.265  0.00  0.00     0.107 A 
ATOM      5  C   UNL d   1     -25.107  15.153 -33.841  0.00  0.00     0.082 A 
ATOM      6  C   UNL d   1     -26.322  14.352 -32.469  0.00  0.00     0.082 A 
ATOM      7  C   UNL d   1     -25.151  14.160 -33.730  0.00  0.00     0.085 A 
ATOM      8  C   UNL d   1     -25.758  13.760 -33.044  0.00  0.00     0.075 A 
ATOM      9  C   UNL d   1     -25.006  17.206 -34.081  0.00  0.00     0.090 A 
ATOM     10  C   UNL d   1     -24.470  15.556 -34.559  0.00  0.00     0.190 A 
ATOM     11  C   UNL d   1     -24.418  16.589 -34.680  0.00  0.00     0.094 A 
ENDROOT
BRANCH   3  12
ATOM     12  C   UNL d   1     -26.843  15.937 -32.004  0.00  0.00     0.014 A 
ATOM     13  C   UNL d   1     -26.508  16.230 -31.108  0.00  0.00     0.029 A 
ATOM     14  C   UNL d   1     -27.072  16.822 -30.533  0.00  0.00    -0.001 A 
ATOM     15  C   UNL d   1     -27.971  17.122 -30.854  0.00  0.00     0.017 A 
ATOM     16  C   UNL d   1     -28.305  16.830 -31.749  0.00  0.00     0.038 A 
ATOM     17  C   UNL d   1     -27.741  16.237 -32.325  0.00  0.00     0.076 A 
BRANCH  14  18
ATOM     18  C   UNL d   1     -26.738  17.114 -29.637  0.00  0.00     0.090 A 
ATOM     19  O   UNL d   1     -26.180  17.941 -29.557  0.00  0.00    -0.309 OA
ATOM     20  C   UNL d   1     -25.846  18.233 -28.661  0.00  0.00     0.095 A 
ATOM     21  C   UNL d   1     -26.069  17.699 -27.845  0.00  0.00     0.081 A 
ATOM     22  C   UNL d   1     -25.266  19.096 -28.593  0.00  0.00     0.075 A 
ATOM     23  C   UNL d   1     -26.627  16.873 -27.926  0.00  0.00     0.190 A 
ATOM     24  C   UNL d   1     -25.728  17.991 -26.905  0.00  0.00     0.085 A 
ATOM     25  O   UNL d   1     -26.850  16.339 -27.110  0.00  0.00    -0.287 OA
ATOM     26  C   UNL d   1     -26.961  16.581 -28.822  0.00  0.00     0.094 A 
ATOM     27  C   UNL d   1     -25.146  18.851 -26.814  0.00  0.00     0.074 A 
ATOM     28  C   UNL d   1     -24.914  19.407 -27.663  0.00  0.00     0.071 A 
BRANCH  24  29
ATOM     29  O   UNL d   1     -25.957  17.450 -26.096  0.00  0.00    -0.360 OA
ATOM     30  H   UNL d   1     -25.872  17.688 -25.530  0.00  0.00     0.217 HD
ENDBRANCH  24  29
BRANCH  28  31
ATOM     31  O   UNL d   1     -24.356  20.234 -27.587  0.00  0.00    -0.361 OA
ATOM     32  H   UNL d   1     -23.909  20.346 -28.002  0.00  0.00     0.217 HD
ENDBRANCH  28  31
ENDBRANCH  14  18
BRANCH  17  33
ATOM     33  O   UNL d   1     -28.075  15.945 -33.221  0.00  0.00    -0.360 OA
ATOM     34  H   UNL d   1     -28.598  16.187 -33.451  0.00  0.00     0.217 HD
ENDBRANCH  17  33
ENDBRANCH   3  12
BRANCH   6  35
ATOM     35  O   UNL d   1     -26.930  13.952 -31.783  0.00  0.00    -0.360 OA
ATOM     36  H   UNL d   1     -26.769  13.427 -31.495  0.00  0.00     0.217 HD
ENDBRANCH   6  35
BRANCH   9  37
ATOM     37  C   UNL d   1     -24.965  18.200 -34.188  0.00  0.00    -0.002 A 
ATOM     38  C   UNL d   1     -25.744  18.692 -34.578  0.00  0.00     0.017 A 
ATOM     39  C   UNL d   1     -25.704  19.685 -34.686  0.00  0.00     0.037 A 
ATOM     40  C   UNL d   1     -24.886  20.186 -34.403  0.00  0.00     0.065 A 
ATOM     41  C   UNL d   1     -24.108  19.694 -34.013  0.00  0.00     0.037 A 
ATOM     42  C   UNL d   1     -24.148  18.700 -33.906  0.00  0.00     0.017 A 
BRANCH  40  43
ATOM     43  O   UNL d   1     -24.845  21.180 -34.510  0.00  0.00    -0.361 OA
ATOM     44  H   UNL d   1     -24.312  21.481 -34.412  0.00  0.00     0.217 HD
ENDBRANCH  40  43
ENDBRANCH   9  37
BRANCH   7  45
ATOM     45  O   UNL d   1     -24.586  13.568 -34.306  0.00  0.00    -0.360 OA
ATOM     46  H   UNL d   1     -23.968  13.614 -34.286  0.00  0.00     0.217 HD
ENDBRANCH   7  45
TORSDOF 9
ENDMDL
MODEL 2
REMARK VINA RESULT:   -10.866      0.730      1.571
REMARK INTER + INTRA:          -5.798
REMARK INTER:                 -14.284
REMARK INTRA:                   8.486
REMARK UNBOUND:                 8.880
REMARK  9 active torsions:
REMARK  status: ('A' for Active; 'I' for Inactive)
REMARK    1  A    between atoms: O_3  and  C_17 
REMARK    2  A    between atoms: O_4  and  C_18 
REMARK    3  A    between atoms: O_5  and  C_19 
REMARK    4  A    between atoms: O_7  and  C_32 
REMARK    5  A    between atoms: O_9  and  C_36 
REMARK    6  A    between atoms: O_10  and  C_40 
REMARK    7  A    between atoms: C_11  and  C_13 
REMARK    8  A    between atoms: C_15  and  C_20 
REMARK    9  A    between atoms: C_22  and  C_29 
ROOT
ATOM      1  O   UNL d   1     -25.547  16.644 -33.239  0.00  0.00    -0.308 OA
ATOM      2  O   UNL d   1     -24.152  14.342 -34.713  0.00  0.00    -0.287 OA
ATOM      3  C   UNL d   1     -26.347  15.451 -32.221  0.00  0.00     0.045 A 
ATOM      4  C   UNL d   1     -25.718  15.651 -32.971  0.00  0.00     0.107 A 
ATOM      5  C   UNL d   1     -25.261  14.904 -33.454  0.00  0.00     0.082 A 
ATOM      6  C   UNL d   1     -26.521  14.503 -31.953  0.00  0.00     0.082 A 
ATOM      7  C   UNL d   1     -25.434  13.956 -33.186  0.00  0.00     0.085 A 
ATOM      8  C   UNL d   1     -26.064  13.756 -32.436  0.00  0.00     0.075 A 
ATOM      9  C   UNL d   1     -24.893  16.860 -34.019  0.00  0.00     0.090 A 
ATOM     10  C   UNL d   1     -24.603  15.097 -34.237  0.00  0.00     0.190 A 
ATOM     11  C   UNL d   1     -24.417  16.081 -34.522  0.00  0.00     0.094 A 
ENDROOT
BRANCH   3  12
ATOM     12  C   UNL d   1     -26.804  16.198 -31.738  0.00  0.00     0.014 A 
ATOM     13  C   UNL d   1     -26.357  16.636 -30.958  0.00  0.00     0.029 A 
ATOM     14  C   UNL d   1     -26.814  17.383 -30.475  0.00  0.00    -0.001 A 
ATOM     15  C   UNL d   1     -27.717  17.693 -30.773  0.00  0.00     0.017 A 
ATOM     16  C   UNL d   1     -28.163  17.255 -31.553  0.00  0.00     0.038 A 
ATOM     17  C   UNL d   1     -27.707  16.508 -32.036  0.00  0.00     0.076 A 
BRANCH  14  18
ATOM     18  C   UNL d   1     -26.367  17.821 -29.695  0.00  0.00     0.090 A 
ATOM     19  O   UNL d   1     -26.465  17.430 -28.779  0.00  0.00    -0.309 OA
ATOM     20  C   UNL d   1     -26.018  17.868 -27.999  0.00  0.00     0.095 A 
ATOM     21  C   UNL d   1     -25.474  18.696 -28.134  0.00  0.00     0.081 A 
ATOM     22  C   UNL d   1     -26.128  17.449 -27.051  0.00  0.00     0.075 A 
ATOM     23  C   UNL d   1     -25.377  19.087 -29.049  0.00  0.00     0.190 A 
ATOM     24  C   UNL d   1     -25.003  19.163 -27.331  0.00  0.00     0.085 A 
ATOM     25  O   UNL d   1     -24.834  19.915 -29.184  0.00  0.00    -0.287 OA
ATOM     26  C   UNL d   1     -25.824  18.649 -29.830  0.00  0.00     0.094 A 
ATOM     27  C   UNL d   1     -25.100  18.762 -26.374  0.00  0.00     0.074 A 
ATOM     28  C   UNL d   1     -25.666  17.899 -26.233  0.00  0.00     0.071 A 
BRANCH  24  29
ATOM     29  O   UNL d   1     -24.462  19.991 -27.477  0.00  0.00    -0.360 OA
ATOM     30  H   UNL d   1     -23.894  19.951 -27.724  0.00  0.00     0.217 HD
ENDBRANCH  24  29
BRANCH  28  31
ATOM     31  O   UNL d   1     -25.766  17.506 -25.319  0.00  0.00    -0.361 OA
ATOM     32  H   UNL d   1     -25.455  17.750 -24.841  0.00  0.00     0.217 HD
ENDBRANCH  28  31
ENDBRANCH  14  18
BRANCH  17  33
ATOM     33  O   UNL d   1     -28.153  16.070 -32.816  0.00  0.00    -0.360 OA
ATOM     34  H   UNL d   1     -28.359  15.487 -32.769  0.00  0.00     0.217 HD
ENDBRANCH  17  33
ENDBRANCH   3  12
BRANCH   6  35
ATOM     35  O   UNL d   1     -27.151  14.303 -31.203  0.00  0.00    -0.360 OA
ATOM     36  H   UNL d   1     -27.575  13.855 -31.265  0.00  0.00     0.217 HD
ENDBRANCH   6  35
BRANCH   9  37
ATOM     37  C   UNL d   1     -24.722  17.809 -34.284  0.00  0.00    -0.002 A 
ATOM     38  C   UNL d   1     -23.821  18.216 -34.132  0.00  0.00     0.017 A 
ATOM     39  C   UNL d   1     -23.649  19.165 -34.396  0.00  0.00     0.037 A 
ATOM     40  C   UNL d   1     -24.379  19.707 -34.812  0.00  0.00     0.065 A 
ATOM     41  C   UNL d   1     -25.281  19.301 -34.964  0.00  0.00     0.037 A 
ATOM     42  C   UNL d   1     -25.451  18.351 -34.699  0.00  0.00     0.017 A 
BRANCH  40  43
ATOM     43  O   UNL d   1     -24.209  20.657 -35.077  0.00  0.00    -0.361 OA
ATOM     44  H   UNL d   1     -23.638  20.894 -35.028  0.00  0.00     0.217 HD
ENDBRANCH  40  43
ENDBRANCH   9  37
BRANCH   7  45
ATOM     45  O   UNL d   1     -24.978  13.209 -33.669  0.00  0.00    -0.360 OA
ATOM     46  H   UNL d   1     -24.525  13.332 -34.074  0.00  0.00     0.217 HD
ENDBRANCH   7  45
TORSDOF 9
ENDMDL
MODEL 3
REMARK VINA RESULT:   -10.791      3.426      5.044
REMARK INTER + INTRA:          -5.695
REMARK INTER:                 -14.619
REMARK INTRA:                   8.923
REMARK UNBOUND:                 8.880
REMARK  9 active torsions:
REMARK  status: ('A' for Active; 'I' for Inactive)
REMARK    1  A    between atoms: O_3  and  C_17 
REMARK    2  A    between atoms: O_4  and  C_18 
REMARK    3  A    between atoms: O_5  and  C_19 
REMARK    4  A    between atoms: O_7  and  C_32 
REMARK    5  A    between atoms: O_9  and  C_36 
REMARK    6  A    between atoms: O_10  and  C_40 
REMARK    7  A    between atoms: C_11  and  C_13 
REMARK    8  A    between atoms: C_15  and  C_20 
REMARK    9  A    between atoms: C_22  and  C_29 
ROOT
ATOM      1  O   UNL d   1     -25.535  16.100 -32.337  0.00  0.00    -0.308 OA
ATOM      2  O   UNL d   1     -25.482  18.116 -34.651  0.00  0.00    -0.287 OA
ATOM      3  C   UNL d   1     -24.927  14.876 -33.446  0.00  0.00     0.045 A 
ATOM      4  C   UNL d   1     -25.218  15.819 -33.289  0.00  0.00     0.107 A 
ATOM      5  C   UNL d   1     -25.202  16.479 -34.041  0.00  0.00     0.082 A 
ATOM      6  C   UNL d   1     -24.620  14.591 -34.354  0.00  0.00     0.082 A 
ATOM      7  C   UNL d   1     -24.895  16.195 -34.949  0.00  0.00     0.085 A 
ATOM      8  C   UNL d   1     -24.604  15.251 -35.105  0.00  0.00     0.075 A 
ATOM      9  C   UNL d   1     -25.840  17.082 -32.167  0.00  0.00     0.090 A 
ATOM     10  C   UNL d   1     -25.502  17.465 -33.892  0.00  0.00     0.190 A 
ATOM     11  C   UNL d   1     -25.823  17.769 -32.950  0.00  0.00     0.094 A 
ENDROOT
BRANCH   3  12
ATOM     12  C   UNL d   1     -24.943  14.216 -32.694  0.00  0.00     0.014 A 
ATOM     13  C   UNL d   1     -24.161  14.145 -32.075  0.00  0.00     0.029 A 
ATOM     14  C   UNL d   1     -24.177  13.486 -31.323  0.00  0.00    -0.001 A 
ATOM     15  C   UNL d   1     -24.975  12.897 -31.191  0.00  0.00     0.017 A 
ATOM     16  C   UNL d   1     -25.756  12.968 -31.811  0.00  0.00     0.038 A 
ATOM     17  C   UNL d   1     -25.740  13.628 -32.562  0.00  0.00     0.076 A 
BRANCH  14  18
ATOM     18  C   UNL d   1     -23.395  13.415 -30.703  0.00  0.00     0.090 A 
ATOM     19  O   UNL d   1     -23.313  12.630 -30.090  0.00  0.00    -0.309 OA
ATOM     20  C   UNL d   1     -22.532  12.559 -29.470  0.00  0.00     0.095 A 
ATOM     21  C   UNL d   1     -21.832  13.273 -29.464  0.00  0.00     0.081 A 
ATOM     22  C   UNL d   1     -22.460  11.734 -28.836  0.00  0.00     0.075 A 
ATOM     23  C   UNL d   1     -21.914  14.058 -30.078  0.00  0.00     0.190 A 
ATOM     24  C   UNL d   1     -21.012  13.213 -28.824  0.00  0.00     0.085 A 
ATOM     25  O   UNL d   1     -21.214  14.773 -30.071  0.00  0.00    -0.287 OA
ATOM     26  C   UNL d   1     -22.696  14.129 -30.697  0.00  0.00     0.094 A 
ATOM     27  C   UNL d   1     -20.920  12.398 -28.182  0.00  0.00     0.074 A 
ATOM     28  C   UNL d   1     -21.649  11.653 -28.188  0.00  0.00     0.071 A 
BRANCH  24  29
ATOM     29  O   UNL d   1     -20.319  13.933 -28.826  0.00  0.00    -0.360 OA
ATOM     30  H   UNL d   1     -19.759  13.825 -28.582  0.00  0.00     0.217 HD
ENDBRANCH  24  29
BRANCH  28  31
ATOM     31  O   UNL d   1     -21.570  10.867 -27.576  0.00  0.00    -0.361 OA
ATOM     32  H   UNL d   1     -21.906  10.356 -27.682  0.00  0.00     0.217 HD
ENDBRANCH  28  31
ENDBRANCH  14  18
BRANCH  17  33
ATOM     33  O   UNL d   1     -26.522  13.698 -33.182  0.00  0.00    -0.360 OA
ATOM     34  H   UNL d   1     -27.063  13.919 -32.975  0.00  0.00     0.217 HD
ENDBRANCH  17  33
ENDBRANCH   3  12
BRANCH   6  35
ATOM     35  O   UNL d   1     -24.328  13.648 -34.511  0.00  0.00    -0.360 OA
ATOM     36  H   UNL d   1     -24.676  13.270 -34.858  0.00  0.00     0.217 HD
ENDBRANCH   6  35
BRANCH   9  37
ATOM     37  C   UNL d   1     -26.146  17.362 -31.257  0.00  0.00    -0.002 A 
ATOM     38  C   UNL d   1     -25.475  17.549 -30.539  0.00  0.00     0.017 A 
ATOM     39  C   UNL d   1     -25.781  17.829 -29.629  0.00  0.00     0.037 A 
ATOM     40  C   UNL d   1     -26.758  17.922 -29.437  0.00  0.00     0.065 A 
ATOM     41  C   UNL d   1     -27.429  17.735 -30.154  0.00  0.00     0.037 A 
ATOM     42  C   UNL d   1     -27.122  17.455 -31.064  0.00  0.00     0.017 A 
BRANCH  40  43
ATOM     43  O   UNL d   1     -27.064  18.202 -28.527  0.00  0.00    -0.361 OA
ATOM     44  H   UNL d   1     -27.613  18.009 -28.311  0.00  0.00     0.217 HD
ENDBRANCH  40  43
ENDBRANCH   9  37
BRANCH   7  45
ATOM     45  O   UNL d   1     -24.879  16.854 -35.700  0.00  0.00    -0.360 OA
ATOM     46  H   UNL d   1     -24.552  16.732 -36.213  0.00  0.00     0.217 HD
ENDBRANCH   7  45
TORSDOF 9
ENDMDL
MODEL 4
REMARK VINA RESULT:   -10.653      2.847      5.265
REMARK INTER + INTRA:          -5.510
REMARK INTER:                 -14.528
REMARK INTRA:                   9.018
REMARK UNBOUND:                 8.880
REMARK  9 active torsions:
REMARK  status: ('A' for Active; 'I' for Inactive)
REMARK    1  A    between atoms: O_3  and  C_17 
REMARK    2  A    between atoms: O_4  and  C_18 
REMARK    3  A    between atoms: O_5  and  C_19 
REMARK    4  A    between atoms: O_7  and  C_32 
REMARK    5  A    between atoms: O_9  and  C_36 
REMARK    6  A    between atoms: O_10  and  C_40 
REMARK    7  A    between atoms: C_11  and  C_13 
REMARK    8  A    between atoms: C_15  and  C_20 
REMARK    9  A    between atoms: C_22  and  C_29 
ROOT
ATOM      1  O   UNL d   1     -26.519  16.694 -32.858  0.00  0.00    -0.308 OA
ATOM      2  O   UNL d   1     -26.820  19.583 -33.850  0.00  0.00    -0.287 OA
ATOM      3  C   UNL d   1     -25.163  16.500 -33.964  0.00  0.00     0.045 A 
ATOM      4  C   UNL d   1     -25.882  17.082 -33.586  0.00  0.00     0.107 A 
ATOM      5  C   UNL d   1     -25.984  18.024 -33.907  0.00  0.00     0.082 A 
ATOM      6  C   UNL d   1     -24.545  16.859 -34.664  0.00  0.00     0.082 A 
ATOM      7  C   UNL d   1     -25.365  18.383 -34.606  0.00  0.00     0.085 A 
ATOM      8  C   UNL d   1     -24.646  17.801 -34.984  0.00  0.00     0.075 A 
ATOM      9  C   UNL d   1     -27.270  17.295 -32.459  0.00  0.00     0.090 A 
ATOM     10  C   UNL d   1     -26.728  18.642 -33.522  0.00  0.00     0.190 A 
ATOM     11  C   UNL d   1     -27.376  18.276 -32.793  0.00  0.00     0.094 A 
ENDROOT
BRANCH   3  12
ATOM     12  C   UNL d   1     -25.062  15.558 -33.644  0.00  0.00     0.014 A 
ATOM     13  C   UNL d   1     -24.501  15.361 -32.840  0.00  0.00     0.029 A 
ATOM     14  C   UNL d   1     -24.400  14.419 -32.519  0.00  0.00    -0.001 A 
ATOM     15  C   UNL d   1     -24.860  13.674 -33.002  0.00  0.00     0.017 A 
ATOM     16  C   UNL d   1     -25.422  13.871 -33.806  0.00  0.00     0.038 A 
ATOM     17  C   UNL d   1     -25.523  14.813 -34.127  0.00  0.00     0.076 A 
BRANCH  14  18
ATOM     18  C   UNL d   1     -23.838  14.222 -31.716  0.00  0.00     0.090 A 
ATOM     19  O   UNL d   1     -23.768  13.286 -31.372  0.00  0.00    -0.309 OA
ATOM     20  C   UNL d   1     -23.206  13.089 -30.569  0.00  0.00     0.095 A 
ATOM     21  C   UNL d   1     -22.715  13.828 -30.109  0.00  0.00     0.081 A 
ATOM     22  C   UNL d   1     -23.143  12.108 -30.222  0.00  0.00     0.075 A 
ATOM     23  C   UNL d   1     -22.785  14.765 -30.452  0.00  0.00     0.190 A 
ATOM     24  C   UNL d   1     -22.126  13.638 -29.271  0.00  0.00     0.085 A 
ATOM     25  O   UNL d   1     -22.294  15.504 -29.992  0.00  0.00    -0.287 OA
ATOM     26  C   UNL d   1     -23.347  14.962 -31.256  0.00  0.00     0.094 A 
ATOM     27  C   UNL d   1     -22.048  12.665 -28.907  0.00  0.00     0.074 A 
ATOM     28  C   UNL d   1     -22.560  11.895 -29.386  0.00  0.00     0.071 A 
BRANCH  24  29
ATOM     29  O   UNL d   1     -21.639  14.385 -28.818  0.00  0.00    -0.360 OA
ATOM     30  H   UNL d   1     -21.331  14.805 -29.157  0.00  0.00     0.217 HD
ENDBRANCH  24  29
BRANCH  28  31
ATOM     31  O   UNL d   1     -22.492  10.957 -29.045  0.00  0.00    -0.361 OA
ATOM     32  H   UNL d   1     -22.560  10.841 -28.440  0.00  0.00     0.217 HD
ENDBRANCH  28  31
ENDBRANCH  14  18
BRANCH  17  33
ATOM     33  O   UNL d   1     -26.084  15.010 -34.930  0.00  0.00    -0.360 OA
ATOM     34  H   UNL d   1     -26.674  14.821 -34.950  0.00  0.00     0.217 HD
ENDBRANCH  17  33
ENDBRANCH   3  12
BRANCH   6  35
ATOM     35  O   UNL d   1     -23.826  16.276 -35.042  0.00  0.00    -0.360 OA
ATOM     36  H   UNL d   1     -23.695  16.300 -35.648  0.00  0.00     0.217 HD
ENDBRANCH   6  35
BRANCH   9  37
ATOM     37  C   UNL d   1     -27.886  16.932 -31.760  0.00  0.00    -0.002 A 
ATOM     38  C   UNL d   1     -27.517  16.410 -30.991  0.00  0.00     0.017 A 
ATOM     39  C   UNL d   1     -28.132  16.046 -30.292  0.00  0.00     0.037 A 
ATOM     40  C   UNL d   1     -29.117  16.205 -30.362  0.00  0.00     0.065 A 
ATOM     41  C   UNL d   1     -29.487  16.727 -31.130  0.00  0.00     0.037 A 
ATOM     42  C   UNL d   1     -28.870  17.090 -31.830  0.00  0.00     0.017 A 
BRANCH  40  43
ATOM     43  O   UNL d   1     -29.733  15.842 -29.662  0.00  0.00    -0.361 OA
ATOM     44  H   UNL d   1     -29.600  15.305 -29.379  0.00  0.00     0.217 HD
ENDBRANCH  40  43
ENDBRANCH   9  37
BRANCH   7  45
ATOM     45  O   UNL d   1     -25.466  19.325 -34.926  0.00  0.00    -0.360 OA
ATOM     46  H   UNL d   1     -25.245  19.794 -34.586  0.00  0.00     0.217 HD
ENDBRANCH   7  45
TORSDOF 9
ENDMDL
MODEL 5
REMARK VINA RESULT:   -10.455      1.475      3.731
REMARK INTER + INTRA:          -5.241
REMARK INTER:                 -14.072
REMARK INTRA:                   8.830
REMARK UNBOUND:                 8.880
REMARK  9 active torsions:
REMARK  status: ('A' for Active; 'I' for Inactive)
REMARK    1  A    between atoms: O_3  and  C_17 
REMARK    2  A    between atoms: O_4  and  C_18 
REMARK    3  A    between atoms: O_5  and  C_19 
REMARK    4  A    between atoms: O_7  and  C_32 
REMARK    5  A    between atoms: O_9  and  C_36 
REMARK    6  A    between atoms: O_10  and  C_40 
REMARK    7  A    between atoms: C_11  and  C_13 
REMARK    8  A    between atoms: C_15  and  C_20 
REMARK    9  A    between atoms: C_22  and  C_29 
ROOT
ATOM      1  O   UNL d   1     -25.547  15.795 -32.453  0.00  0.00    -0.308 OA
ATOM      2  O   UNL d   1     -24.398  16.009 -35.291  0.00  0.00    -0.287 OA
ATOM      3  C   UNL d   1     -26.464  17.267 -32.759  0.00  0.00     0.045 A 
ATOM      4  C   UNL d   1     -25.818  16.577 -33.086  0.00  0.00     0.107 A 
ATOM      5  C   UNL d   1     -25.442  16.643 -34.010  0.00  0.00     0.082 A 
ATOM      6  C   UNL d   1     -26.733  18.023 -33.355  0.00  0.00     0.082 A 
ATOM      7  C   UNL d   1     -25.711  17.399 -34.607  0.00  0.00     0.085 A 
ATOM      8  C   UNL d   1     -26.357  18.089 -34.279  0.00  0.00     0.075 A 
ATOM      9  C   UNL d   1     -24.875  15.073 -32.787  0.00  0.00     0.090 A 
ATOM     10  C   UNL d   1     -24.768  15.932 -34.365  0.00  0.00     0.190 A 
ATOM     11  C   UNL d   1     -24.483  15.142 -33.750  0.00  0.00     0.094 A 
ENDROOT
BRANCH   3  12
ATOM     12  C   UNL d   1     -26.840  17.200 -31.835  0.00  0.00     0.014 A 
ATOM     13  C   UNL d   1     -26.354  17.615 -31.066  0.00  0.00     0.029 A 
ATOM     14  C   UNL d   1     -26.730  17.549 -30.142  0.00  0.00    -0.001 A 
ATOM     15  C   UNL d   1     -27.593  17.067 -29.987  0.00  0.00     0.017 A 
ATOM     16  C   UNL d   1     -28.080  16.653 -30.756  0.00  0.00     0.038 A 
ATOM     17  C   UNL d   1     -27.703  16.719 -31.680  0.00  0.00     0.076 A 
BRANCH  14  18
ATOM     18  C   UNL d   1     -26.244  17.963 -29.373  0.00  0.00     0.090 A 
ATOM     19  O   UNL d   1     -26.409  17.637 -28.442  0.00  0.00    -0.309 OA
ATOM     20  C   UNL d   1     -25.923  18.052 -27.673  0.00  0.00     0.095 A 
ATOM     21  C   UNL d   1     -25.272  18.793 -27.835  0.00  0.00     0.081 A 
ATOM     22  C   UNL d   1     -26.106  17.701 -26.709  0.00  0.00     0.075 A 
ATOM     23  C   UNL d   1     -25.106  19.119 -28.765  0.00  0.00     0.190 A 
ATOM     24  C   UNL d   1     -24.757  19.235 -27.044  0.00  0.00     0.085 A 
ATOM     25  O   UNL d   1     -24.455  19.860 -28.927  0.00  0.00    -0.287 OA
ATOM     26  C   UNL d   1     -25.593  18.704 -29.534  0.00  0.00     0.094 A 
ATOM     27  C   UNL d   1     -24.924  18.900 -26.071  0.00  0.00     0.074 A 
ATOM     28  C   UNL d   1     -25.603  18.128 -25.902  0.00  0.00     0.071 A 
BRANCH  24  29
ATOM     29  O   UNL d   1     -24.108  19.975 -27.217  0.00  0.00    -0.360 OA
ATOM     30  H   UNL d   1     -23.667  20.105 -26.800  0.00  0.00     0.217 HD
ENDBRANCH  24  29
BRANCH  28  31
ATOM     31  O   UNL d   1     -25.771  17.799 -24.973  0.00  0.00    -0.361 OA
ATOM     32  H   UNL d   1     -25.866  18.205 -24.513  0.00  0.00     0.217 HD
ENDBRANCH  28  31
ENDBRANCH  14  18
BRANCH  17  33
ATOM     33  O   UNL d   1     -28.189  16.304 -32.449  0.00  0.00    -0.360 OA
ATOM     34  H   UNL d   1     -28.041  16.461 -33.030  0.00  0.00     0.217 HD
ENDBRANCH  17  33
ENDBRANCH   3  12
BRANCH   6  35
ATOM     35  O   UNL d   1     -27.379  18.712 -33.028  0.00  0.00    -0.360 OA
ATOM     36  H   UNL d   1     -27.675  19.077 -33.433  0.00  0.00     0.217 HD
ENDBRANCH   6  35
BRANCH   9  37
ATOM     37  C   UNL d   1     -24.608  14.318 -32.188  0.00  0.00    -0.002 A 
ATOM     38  C   UNL d   1     -23.773  14.386 -31.641  0.00  0.00     0.017 A 
ATOM     39  C   UNL d   1     -23.506  13.632 -31.041  0.00  0.00     0.037 A 
ATOM     40  C   UNL d   1     -24.074  12.811 -30.988  0.00  0.00     0.065 A 
ATOM     41  C   UNL d   1     -24.909  12.743 -31.534  0.00  0.00     0.037 A 
ATOM     42  C   UNL d   1     -25.176  13.498 -32.134  0.00  0.00     0.017 A 
BRANCH  40  43
ATOM     43  O   UNL d   1     -23.807  12.056 -30.388  0.00  0.00    -0.361 OA
ATOM     44  H   UNL d   1     -24.075  11.500 -30.451  0.00  0.00     0.217 HD
ENDBRANCH  40  43
ENDBRANCH   9  37
BRANCH   7  45
ATOM     45  O   UNL d   1     -25.335  17.466 -35.531  0.00  0.00    -0.360 OA
ATOM     46  H   UNL d   1     -24.839  17.128 -35.689  0.00  0.00     0.217 HD
ENDBRANCH   7  45
TORSDOF 9
ENDMDL
