MODEL 1
REMARK VINA RESULT:     0.000      0.000      0.000
REMARK INTER + INTRA:           2.976
REMARK INTER:                   0.000
REMARK INTRA:                   2.976
REMARK UNBOUND:                 2.976
REMARK  2 active torsions:
REMARK  status: ('A' for Active; 'I' for Inactive)
REMARK    1  A    between atoms: O_3  and  C_17 
REMARK    2  A    between atoms: O_4  and  C_21 
ROOT
ATOM      1  O   UNL d   1       4.131  10.988 -14.265  0.00  0.00    -0.323 OA
ATOM      2  O   UNL d   1       4.517  12.613 -14.122  0.00  0.00    -0.323 OA
ATOM      3  N   UNL d   1       8.466  10.413 -15.451  0.00  0.00    -0.400 N 
ATOM      4  C   UNL d   1       7.535  10.101 -15.261  0.00  0.00     0.117 A 
ATOM      5  C   UNL d   1       7.280   9.094 -15.345  0.00  0.00     0.069 A 
ATOM      6  C   UNL d   1       6.834  10.759 -14.985  0.00  0.00    -0.026 A 
ATOM      7  C   UNL d   1       8.696  11.382 -15.366  0.00  0.00     0.122 A 
ATOM      8  C   UNL d   1       9.207   9.739 -15.739  0.00  0.00     0.160 A 
ATOM      9  C   UNL d   1       7.995  12.040 -15.090  0.00  0.00     0.058 A 
ATOM     10  C   UNL d   1       7.064  11.728 -14.900  0.00  0.00    -0.045 A 
ATOM     11  C   UNL d   1       8.005   8.403 -15.631  0.00  0.00    -0.045 A 
ATOM     12  C   UNL d   1       8.974   8.728 -15.829  0.00  0.00     0.002 A 
ATOM     13  C   UNL d   1       5.869  10.419 -14.790  0.00  0.00     0.049 A 
ATOM     14  C   UNL d   1       6.345  12.425 -14.614  0.00  0.00     0.047 A 
ATOM     15  C   UNL d   1       9.746   8.027 -16.129  0.00  0.00     0.110 A 
ATOM     16  C   UNL d   1       7.740   7.355 -15.719  0.00  0.00     0.011 A 
ATOM     17  C   UNL d   1       5.133  11.098 -14.503  0.00  0.00     0.105 A 
ATOM     18  C   UNL d   1       5.372  12.108 -14.414  0.00  0.00     0.105 A 
ATOM     19  C   UNL d   1       9.505   6.973 -16.224  0.00  0.00     0.102 A 
ATOM     20  C   UNL d   1       8.495   6.635 -16.017  0.00  0.00     0.040 A 
ATOM     21  C   UNL d   1       3.752  11.922 -14.030  0.00  0.00     0.352 A 
ENDROOT
BRANCH  15  22
ATOM     22  O   UNL d   1      10.674   8.349 -16.317  0.00  0.00    -0.352 OA
ATOM     23  C   UNL d   1      11.351   8.383 -15.582  0.00  0.00     0.210 C 
ENDBRANCH  15  22
BRANCH  19  24
ATOM     24  O   UNL d   1      10.208   6.318 -16.499  0.00  0.00    -0.353 OA
ATOM     25  C   UNL d   1       9.952   5.387 -16.757  0.00  0.00     0.210 C 
ENDBRANCH  19  24
TORSDOF 2
ENDMDL
MODEL 2
REMARK VINA RESULT:     0.000     50.205     52.457
REMARK INTER + INTRA:           2.976
REMARK INTER:                   0.000
REMARK INTRA:                   2.976
REMARK UNBOUND:                 2.976
REMARK  2 active torsions:
REMARK  status: ('A' for Active; 'I' for Inactive)
REMARK    1  A    between atoms: O_3  and  C_17 
REMARK    2  A    between atoms: O_4  and  C_21 
ROOT
ATOM      1  O   UNL d   1       6.588 -37.469 -37.427  0.00  0.00    -0.323 OA
ATOM      2  O   UNL d   1       6.541 -36.016 -36.593  0.00  0.00    -0.323 OA
ATOM      3  N   UNL d   1       8.426 -35.079 -40.809  0.00  0.00    -0.400 N 
ATOM      4  C   UNL d   1       8.085 -35.914 -40.377  0.00  0.00     0.117 A 
ATOM      5  C   UNL d   1       8.108 -36.825 -40.883  0.00  0.00     0.069 A 
ATOM      6  C   UNL d   1       7.717 -35.883 -39.448  0.00  0.00    -0.026 A 
ATOM      7  C   UNL d   1       8.398 -34.212 -40.312  0.00  0.00     0.122 A 
ATOM      8  C   UNL d   1       8.812 -35.097 -41.776  0.00  0.00     0.160 A 
ATOM      9  C   UNL d   1       8.030 -34.180 -39.382  0.00  0.00     0.058 A 
ATOM     10  C   UNL d   1       7.689 -35.016 -38.951  0.00  0.00    -0.045 A 
ATOM     11  C   UNL d   1       8.490 -36.866 -41.851  0.00  0.00    -0.045 A 
ATOM     12  C   UNL d   1       8.844 -35.996 -42.300  0.00  0.00     0.002 A 
ATOM     13  C   UNL d   1       7.367 -36.762 -39.011  0.00  0.00     0.049 A 
ATOM     14  C   UNL d   1       7.309 -34.967 -37.982  0.00  0.00     0.047 A 
ATOM     15  C   UNL d   1       9.246 -36.014 -43.308  0.00  0.00     0.110 A 
ATOM     16  C   UNL d   1       8.513 -37.814 -42.378  0.00  0.00     0.011 A 
ATOM     17  C   UNL d   1       6.982 -36.737 -38.044  0.00  0.00     0.105 A 
ATOM     18  C   UNL d   1       6.953 -35.834 -37.526  0.00  0.00     0.105 A 
ATOM     19  C   UNL d   1       9.280 -36.950 -43.855  0.00  0.00     0.102 A 
ATOM     20  C   UNL d   1       8.911 -37.857 -43.386  0.00  0.00     0.040 A 
ATOM     21  C   UNL d   1       6.316 -37.024 -36.533  0.00  0.00     0.352 A 
ENDROOT
BRANCH  15  22
ATOM     22  O   UNL d   1       9.584 -35.173 -43.731  0.00  0.00    -0.352 OA
ATOM     23  C   UNL d   1      10.543 -34.911 -43.628  0.00  0.00     0.210 C 
ENDBRANCH  15  22
BRANCH  19  24
ATOM     24  O   UNL d   1       9.649 -36.978 -44.783  0.00  0.00    -0.353 OA
ATOM     25  C   UNL d   1       9.520 -37.793 -45.349  0.00  0.00     0.210 C 
ENDBRANCH  19  24
TORSDOF 2
ENDMDL
MODEL 3
REMARK VINA RESULT:     0.000     66.656     67.458
REMARK INTER + INTRA:           2.976
REMARK INTER:                   0.000
REMARK INTRA:                   2.976
REMARK UNBOUND:                 2.976
REMARK  2 active torsions:
REMARK  status: ('A' for Active; 'I' for Inactive)
REMARK    1  A    between atoms: O_3  and  C_17 
REMARK    2  A    between atoms: O_4  and  C_21 
ROOT
ATOM      1  O   UNL d   1     -42.985  -1.029  27.355  0.00  0.00    -0.323 OA
ATOM      2  O   UNL d   1     -43.824   0.384  27.685  0.00  0.00    -0.323 OA
ATOM      3  N   UNL d   1     -46.128  -1.750  24.172  0.00  0.00    -0.400 N 
ATOM      4  C   UNL d   1     -45.308  -1.979  24.697  0.00  0.00     0.117 A 
ATOM      5  C   UNL d   1     -44.776  -2.854  24.504  0.00  0.00     0.069 A 
ATOM      6  C   UNL d   1     -44.988  -1.365  25.418  0.00  0.00    -0.026 A 
ATOM      7  C   UNL d   1     -46.628  -0.907  24.369  0.00  0.00     0.122 A 
ATOM      8  C   UNL d   1     -46.472  -2.381  23.418  0.00  0.00     0.160 A 
ATOM      9  C   UNL d   1     -46.308  -0.293  25.090  0.00  0.00     0.058 A 
ATOM     10  C   UNL d   1     -45.488  -0.521  25.614  0.00  0.00    -0.045 A 
ATOM     11  C   UNL d   1     -45.103  -3.499  23.754  0.00  0.00    -0.045 A 
ATOM     12  C   UNL d   1     -45.956  -3.261  23.208  0.00  0.00     0.002 A 
ATOM     13  C   UNL d   1     -44.132  -1.616  25.956  0.00  0.00     0.049 A 
ATOM     14  C   UNL d   1     -45.167   0.129  26.363  0.00  0.00     0.047 A 
ATOM     15  C   UNL d   1     -46.316  -3.917  22.422  0.00  0.00     0.110 A 
ATOM     16  C   UNL d   1     -44.549  -4.410  23.553  0.00  0.00     0.011 A 
ATOM     17  C   UNL d   1     -43.792  -0.981  26.709  0.00  0.00     0.105 A 
ATOM     18  C   UNL d   1     -44.314  -0.103  26.914  0.00  0.00     0.105 A 
ATOM     19  C   UNL d   1     -45.779  -4.834  22.203  0.00  0.00     0.102 A 
ATOM     20  C   UNL d   1     -44.889  -5.082  22.772  0.00  0.00     0.040 A 
ATOM     21  C   UNL d   1     -43.005  -0.187  27.957  0.00  0.00     0.352 A 
ENDROOT
BRANCH  15  22
ATOM     22  O   UNL d   1     -47.137  -3.679  21.903  0.00  0.00    -0.352 OA
ATOM     23  C   UNL d   1     -48.035  -3.987  22.218  0.00  0.00     0.210 C 
ENDBRANCH  15  22
BRANCH  19  24
ATOM     24  O   UNL d   1     -46.101  -5.446  21.481  0.00  0.00    -0.353 OA
ATOM     25  C   UNL d   1     -45.518  -6.191  21.159  0.00  0.00     0.210 C 
ENDBRANCH  19  24
TORSDOF 2
ENDMDL
MODEL 4
REMARK VINA RESULT:     0.000     35.746     37.617
REMARK INTER + INTRA:           2.976
REMARK INTER:                   0.000
REMARK INTRA:                   2.976
REMARK UNBOUND:                 2.976
REMARK  2 active torsions:
REMARK  status: ('A' for Active; 'I' for Inactive)
REMARK    1  A    between atoms: O_3  and  C_17 
REMARK    2  A    between atoms: O_4  and  C_21 
ROOT
ATOM      1  O   UNL d   1       8.812 -21.899   0.792  0.00  0.00    -0.323 OA
ATOM      2  O   UNL d   1      10.236 -22.752   0.558  0.00  0.00    -0.323 OA
ATOM      3  N   UNL d   1       6.747 -25.526  -0.972  0.00  0.00    -0.400 N 
ATOM      4  C   UNL d   1       6.774 -24.609  -0.573  0.00  0.00     0.117 A 
ATOM      5  C   UNL d   1       5.897 -24.066  -0.421  0.00  0.00     0.069 A 
ATOM      6  C   UNL d   1       7.649 -24.202  -0.314  0.00  0.00    -0.026 A 
ATOM      7  C   UNL d   1       7.597 -26.035  -1.111  0.00  0.00     0.122 A 
ATOM      8  C   UNL d   1       5.843 -25.963  -1.247  0.00  0.00     0.160 A 
ATOM      9  C   UNL d   1       8.472 -25.627  -0.852  0.00  0.00     0.058 A 
ATOM     10  C   UNL d   1       8.498 -24.711  -0.453  0.00  0.00    -0.045 A 
ATOM     11  C   UNL d   1       4.981 -24.485  -0.689  0.00  0.00    -0.045 A 
ATOM     12  C   UNL d   1       4.954 -25.439  -1.104  0.00  0.00     0.002 A 
ATOM     13  C   UNL d   1       7.661 -23.246   0.101  0.00  0.00     0.049 A 
ATOM     14  C   UNL d   1       9.418 -24.299  -0.188  0.00  0.00     0.047 A 
ATOM     15  C   UNL d   1       4.012 -25.895  -1.391  0.00  0.00     0.110 A 
ATOM     16  C   UNL d   1       4.069 -23.919  -0.531  0.00  0.00     0.011 A 
ATOM     17  C   UNL d   1       8.569 -22.814   0.373  0.00  0.00     0.105 A 
ATOM     18  C   UNL d   1       9.453 -23.345   0.228  0.00  0.00     0.105 A 
ATOM     19  C   UNL d   1       3.086 -25.349  -1.242  0.00  0.00     0.102 A 
ATOM     20  C   UNL d   1       3.115 -24.355  -0.810  0.00  0.00     0.040 A 
ATOM     21  C   UNL d   1       9.841 -21.861   0.906  0.00  0.00     0.352 A 
ENDROOT
BRANCH  15  22
ATOM     22  O   UNL d   1       3.997 -26.812  -1.789  0.00  0.00    -0.352 OA
ATOM     23  C   UNL d   1       4.059 -26.929  -2.780  0.00  0.00     0.210 C 
ENDBRANCH  15  22
BRANCH  19  24
ATOM     24  O   UNL d   1       2.213 -25.760  -1.503  0.00  0.00    -0.353 OA
ATOM     25  C   UNL d   1       1.355 -25.341  -1.206  0.00  0.00     0.210 C 
ENDBRANCH  19  24
TORSDOF 2
ENDMDL
MODEL 5
REMARK VINA RESULT:     0.002     30.965     33.097
REMARK INTER + INTRA:           2.979
REMARK INTER:                   0.000
REMARK INTRA:                   2.979
REMARK UNBOUND:                 2.976
REMARK  2 active torsions:
REMARK  status: ('A' for Active; 'I' for Inactive)
REMARK    1  A    between atoms: O_3  and  C_17 
REMARK    2  A    between atoms: O_4  and  C_21 
ROOT
ATOM      1  O   UNL d   1       7.845  30.829  13.592  0.00  0.00    -0.323 OA
ATOM      2  O   UNL d   1       9.329  31.086  12.856  0.00  0.00    -0.323 OA
ATOM      3  N   UNL d   1       8.177  26.596  12.013  0.00  0.00    -0.400 N 
ATOM      4  C   UNL d   1       7.728  27.341  12.506  0.00  0.00     0.117 A 
ATOM      5  C   UNL d   1       6.805  27.196  12.969  0.00  0.00     0.069 A 
ATOM      6  C   UNL d   1       8.164  28.239  12.561  0.00  0.00    -0.026 A 
ATOM      7  C   UNL d   1       9.062  26.749  11.574  0.00  0.00     0.122 A 
ATOM      8  C   UNL d   1       7.734  25.655  11.947  0.00  0.00     0.160 A 
ATOM      9  C   UNL d   1       9.498  27.647  11.629  0.00  0.00     0.058 A 
ATOM     10  C   UNL d   1       9.050  28.392  12.122  0.00  0.00    -0.045 A 
ATOM     11  C   UNL d   1       6.345  26.264  12.916  0.00  0.00    -0.045 A 
ATOM     12  C   UNL d   1       6.812  25.488  12.402  0.00  0.00     0.002 A 
ATOM     13  C   UNL d   1       7.684  29.005  13.079  0.00  0.00     0.049 A 
ATOM     14  C   UNL d   1       9.516  29.322  12.171  0.00  0.00     0.047 A 
ATOM     15  C   UNL d   1       6.351  24.508  12.333  0.00  0.00     0.110 A 
ATOM     16  C   UNL d   1       5.384  26.113  13.397  0.00  0.00     0.011 A 
ATOM     17  C   UNL d   1       8.133  29.943  13.141  0.00  0.00     0.105 A 
ATOM     18  C   UNL d   1       9.055  30.103  12.684  0.00  0.00     0.105 A 
ATOM     19  C   UNL d   1       5.391  24.334  12.807  0.00  0.00     0.102 A 
ATOM     20  C   UNL d   1       4.904  25.142  13.342  0.00  0.00     0.040 A 
ATOM     21  C   UNL d   1       8.583  31.534  13.417  0.00  0.00     0.352 A 
ENDROOT
BRANCH  15  22
ATOM     22  O   UNL d   1       6.809  23.770  11.837  0.00  0.00    -0.352 OA
ATOM     23  C   UNL d   1       7.436  23.158  12.318  0.00  0.00     0.210 C 
ENDBRANCH  15  22
BRANCH  19  24
ATOM     24  O   UNL d   1       4.957  23.435  12.750  0.00  0.00    -0.353 OA
ATOM     25  C   UNL d   1       4.004  23.321  13.028  0.00  0.00     0.210 C 
ENDBRANCH  19  24
TORSDOF 2
ENDMDL
