MODEL 1
REMARK VINA RESULT:    -9.515      0.000      0.000
REMARK INTER + INTRA:          -9.606
REMARK INTER:                 -11.036
REMARK INTRA:                   1.431
REMARK UNBOUND:                 1.022
REMARK  3 active torsions:
REMARK  status: ('A' for Active; 'I' for Inactive)
REMARK    1  A    between atoms: O_2  and  C_10 
REMARK    2  A    between atoms: O_4  and  C_13 
REMARK    3  A    between atoms: C_7  and  C_9 
ROOT
ATOM      1  O   UNL d   1      15.473  -3.258  22.517  0.00  0.00    -0.309 OA
ATOM      2  O   UNL d   1      16.698  -2.079  20.046  0.00  0.00    -0.287 OA
ATOM      3  C   UNL d   1      15.568  -1.978  21.354  0.00  0.00     0.081 A 
ATOM      4  C   UNL d   1      15.160  -2.371  22.178  0.00  0.00     0.095 A 
ATOM      5  C   UNL d   1      16.194  -3.753  22.032  0.00  0.00     0.090 A 
ATOM      6  C   UNL d   1      16.289  -2.472  20.869  0.00  0.00     0.190 A 
ATOM      7  C   UNL d   1      15.252  -1.056  20.990  0.00  0.00     0.085 A 
ATOM      8  C   UNL d   1      16.603  -3.360  21.208  0.00  0.00     0.094 A 
ATOM      9  C   UNL d   1      14.407  -1.869  22.694  0.00  0.00     0.075 A 
ATOM     10  C   UNL d   1      14.076  -0.944  22.347  0.00  0.00     0.071 A 
ATOM     11  C   UNL d   1      14.501  -0.535  21.490  0.00  0.00     0.074 A 
ENDROOT
BRANCH   5  12
ATOM     12  C   UNL d   1      16.508  -4.640  22.371  0.00  0.00    -0.002 A 
ATOM     13  C   UNL d   1      16.066  -5.056  23.166  0.00  0.00     0.014 A 
ATOM     14  C   UNL d   1      16.379  -5.943  23.505  0.00  0.00     0.001 A 
ATOM     15  C   UNL d   1      17.134  -6.414  23.049  0.00  0.00     0.000 A 
ATOM     16  C   UNL d   1      17.576  -5.998  22.255  0.00  0.00     0.001 A 
ATOM     17  C   UNL d   1      17.263  -5.111  21.916  0.00  0.00     0.014 A 
ENDBRANCH   5  12
BRANCH   7  18
ATOM     18  O   UNL d   1      15.667  -0.672  20.165  0.00  0.00    -0.360 OA
ATOM     19  H   UNL d   1      15.958  -1.044  19.763  0.00  0.00     0.217 HD
ENDBRANCH   7  18
BRANCH  10  20
ATOM     20  O   UNL d   1      13.354  -0.453  22.835  0.00  0.00    -0.361 OA
ATOM     21  H   UNL d   1      13.479   0.087  23.112  0.00  0.00     0.217 HD
ENDBRANCH  10  20
TORSDOF 3
ENDMDL
MODEL 2
REMARK VINA RESULT:    -9.334     24.252     26.112
REMARK INTER + INTRA:          -9.404
REMARK INTER:                 -10.739
REMARK INTRA:                   1.335
REMARK UNBOUND:                 1.022
REMARK  3 active torsions:
REMARK  status: ('A' for Active; 'I' for Inactive)
REMARK    1  A    between atoms: O_2  and  C_10 
REMARK    2  A    between atoms: O_4  and  C_13 
REMARK    3  A    between atoms: C_7  and  C_9 
ROOT
ATOM      1  O   UNL d   1      -0.064 -23.293  25.823  0.00  0.00    -0.309 OA
ATOM      2  O   UNL d   1       2.405 -24.579  24.704  0.00  0.00    -0.287 OA
ATOM      3  C   UNL d   1       0.709 -24.638  25.051  0.00  0.00     0.081 A 
ATOM      4  C   UNL d   1      -0.114 -24.209  25.424  0.00  0.00     0.095 A 
ATOM      5  C   UNL d   1       0.809 -22.806  25.849  0.00  0.00     0.090 A 
ATOM      6  C   UNL d   1       1.582 -24.151  25.077  0.00  0.00     0.190 A 
ATOM      7  C   UNL d   1       0.672 -25.590  24.632  0.00  0.00     0.085 A 
ATOM      8  C   UNL d   1       1.632 -23.235  25.476  0.00  0.00     0.094 A 
ATOM      9  C   UNL d   1      -1.031 -24.703  25.404  0.00  0.00     0.075 A 
ATOM     10  C   UNL d   1      -1.090 -25.657  24.990  0.00  0.00     0.071 A 
ATOM     11  C   UNL d   1      -0.234 -26.104  24.602  0.00  0.00     0.074 A 
ENDROOT
BRANCH   5  12
ATOM     12  C   UNL d   1       0.859 -21.891  26.248  0.00  0.00    -0.002 A 
ATOM     13  C   UNL d   1       1.713 -21.570  26.657  0.00  0.00     0.014 A 
ATOM     14  C   UNL d   1       1.763 -20.654  27.056  0.00  0.00     0.001 A 
ATOM     15  C   UNL d   1       0.960 -20.060  27.045  0.00  0.00     0.000 A 
ATOM     16  C   UNL d   1       0.106 -20.381  26.636  0.00  0.00     0.001 A 
ATOM     17  C   UNL d   1       0.055 -21.296  26.237  0.00  0.00     0.014 A 
ENDBRANCH   5  12
BRANCH   7  18
ATOM     18  O   UNL d   1       1.502 -26.009  24.262  0.00  0.00    -0.360 OA
ATOM     19  H   UNL d   1       1.995 -25.658  24.133  0.00  0.00     0.217 HD
ENDBRANCH   7  18
BRANCH  10  20
ATOM     20  O   UNL d   1      -1.966 -26.141  24.966  0.00  0.00    -0.361 OA
ATOM     21  H   UNL d   1      -2.494 -25.822  24.907  0.00  0.00     0.217 HD
ENDBRANCH  10  20
TORSDOF 3
ENDMDL
MODEL 3
REMARK VINA RESULT:    -9.123      1.373      4.459
REMARK INTER + INTRA:          -9.168
REMARK INTER:                 -10.455
REMARK INTRA:                   1.286
REMARK UNBOUND:                 1.022
REMARK  3 active torsions:
REMARK  status: ('A' for Active; 'I' for Inactive)
REMARK    1  A    between atoms: O_2  and  C_10 
REMARK    2  A    between atoms: O_4  and  C_13 
REMARK    3  A    between atoms: C_7  and  C_9 
ROOT
ATOM      1  O   UNL d   1      15.316  -3.259  22.785  0.00  0.00    -0.309 OA
ATOM      2  O   UNL d   1      17.323  -4.010  20.686  0.00  0.00    -0.287 OA
ATOM      3  C   UNL d   1      16.461  -4.387  22.140  0.00  0.00     0.081 A 
ATOM      4  C   UNL d   1      15.792  -4.137  22.840  0.00  0.00     0.095 A 
ATOM      5  C   UNL d   1      15.509  -2.632  22.031  0.00  0.00     0.090 A 
ATOM      6  C   UNL d   1      16.654  -3.760  21.385  0.00  0.00     0.190 A 
ATOM      7  C   UNL d   1      16.965  -5.298  22.184  0.00  0.00     0.085 A 
ATOM      8  C   UNL d   1      16.178  -2.882  21.331  0.00  0.00     0.094 A 
ATOM      9  C   UNL d   1      15.581  -4.780  23.632  0.00  0.00     0.075 A 
ATOM     10  C   UNL d   1      16.073  -5.696  23.695  0.00  0.00     0.071 A 
ATOM     11  C   UNL d   1      16.769  -5.956  22.967  0.00  0.00     0.074 A 
ENDROOT
BRANCH   5  12
ATOM     12  C   UNL d   1      15.033  -1.754  21.976  0.00  0.00    -0.002 A 
ATOM     13  C   UNL d   1      15.503  -0.952  21.609  0.00  0.00     0.014 A 
ATOM     14  C   UNL d   1      15.027  -0.074  21.555  0.00  0.00     0.001 A 
ATOM     15  C   UNL d   1      14.080   0.001  21.867  0.00  0.00     0.000 A 
ATOM     16  C   UNL d   1      13.609  -0.801  22.234  0.00  0.00     0.001 A 
ATOM     17  C   UNL d   1      14.086  -1.679  22.289  0.00  0.00     0.014 A 
ENDBRANCH   5  12
BRANCH   7  18
ATOM     18  O   UNL d   1      17.632  -5.537  21.478  0.00  0.00    -0.360 OA
ATOM     19  H   UNL d   1      18.024  -5.108  21.265  0.00  0.00     0.217 HD
ENDBRANCH   7  18
BRANCH  10  20
ATOM     20  O   UNL d   1      15.877  -6.320  24.452  0.00  0.00    -0.361 OA
ATOM     21  H   UNL d   1      16.307  -6.727  24.636  0.00  0.00     0.217 HD
ENDBRANCH  10  20
TORSDOF 3
ENDMDL
MODEL 4
REMARK VINA RESULT:    -9.059     23.057     24.773
REMARK INTER + INTRA:          -9.097
REMARK INTER:                 -10.098
REMARK INTRA:                   1.001
REMARK UNBOUND:                 1.022
REMARK  3 active torsions:
REMARK  status: ('A' for Active; 'I' for Inactive)
REMARK    1  A    between atoms: O_2  and  C_10 
REMARK    2  A    between atoms: O_4  and  C_13 
REMARK    3  A    between atoms: C_7  and  C_9 
ROOT
ATOM      1  O   UNL d   1      -0.287 -21.312  26.432  0.00  0.00    -0.309 OA
ATOM      2  O   UNL d   1       2.585 -22.180  26.414  0.00  0.00    -0.287 OA
ATOM      3  C   UNL d   1       0.940 -22.427  25.931  0.00  0.00     0.081 A 
ATOM      4  C   UNL d   1      -0.017 -22.138  25.937  0.00  0.00     0.095 A 
ATOM      5  C   UNL d   1       0.401 -20.776  26.922  0.00  0.00     0.090 A 
ATOM      6  C   UNL d   1       1.628 -21.891  26.420  0.00  0.00     0.190 A 
ATOM      7  C   UNL d   1       1.236 -23.285  25.419  0.00  0.00     0.085 A 
ATOM      8  C   UNL d   1       1.358 -21.065  26.916  0.00  0.00     0.094 A 
ATOM      9  C   UNL d   1      -0.745 -22.686  25.432  0.00  0.00     0.075 A 
ATOM     10  C   UNL d   1      -0.471 -23.548  24.914  0.00  0.00     0.071 A 
ATOM     11  C   UNL d   1       0.526 -23.849  24.907  0.00  0.00     0.074 A 
ENDROOT
BRANCH   5  12
ATOM     12  C   UNL d   1       0.131 -19.950  27.417  0.00  0.00    -0.002 A 
ATOM     13  C   UNL d   1      -0.197 -20.017  28.359  0.00  0.00     0.014 A 
ATOM     14  C   UNL d   1      -0.467 -19.191  28.855  0.00  0.00     0.001 A 
ATOM     15  C   UNL d   1      -0.409 -18.299  28.408  0.00  0.00     0.000 A 
ATOM     16  C   UNL d   1      -0.080 -18.232  27.466  0.00  0.00     0.001 A 
ATOM     17  C   UNL d   1       0.189 -19.057  26.970  0.00  0.00     0.014 A 
ENDBRANCH   5  12
BRANCH   7  18
ATOM     18  O   UNL d   1       2.196 -23.564  25.420  0.00  0.00    -0.360 OA
ATOM     19  H   UNL d   1       2.460 -23.764  25.944  0.00  0.00     0.217 HD
ENDBRANCH   7  18
BRANCH  10  20
ATOM     20  O   UNL d   1      -1.162 -24.081  24.425  0.00  0.00    -0.361 OA
ATOM     21  H   UNL d   1      -1.485 -23.821  23.965  0.00  0.00     0.217 HD
ENDBRANCH  10  20
TORSDOF 3
ENDMDL
MODEL 5
REMARK VINA RESULT:    -9.028     23.922     25.635
REMARK INTER + INTRA:          -9.062
REMARK INTER:                 -10.150
REMARK INTRA:                   1.088
REMARK UNBOUND:                 1.022
REMARK  3 active torsions:
REMARK  status: ('A' for Active; 'I' for Inactive)
REMARK    1  A    between atoms: O_2  and  C_10 
REMARK    2  A    between atoms: O_4  and  C_13 
REMARK    3  A    between atoms: C_7  and  C_9 
ROOT
ATOM      1  O   UNL d   1       1.655 -23.747  25.915  0.00  0.00    -0.309 OA
ATOM      2  O   UNL d   1      -1.001 -22.722  24.969  0.00  0.00    -0.287 OA
ATOM      3  C   UNL d   1       0.499 -22.462  25.794  0.00  0.00     0.081 A 
ATOM      4  C   UNL d   1       1.385 -22.804  26.110  0.00  0.00     0.095 A 
ATOM      5  C   UNL d   1       1.040 -24.348  25.405  0.00  0.00     0.090 A 
ATOM      6  C   UNL d   1      -0.116 -23.064  25.284  0.00  0.00     0.190 A 
ATOM      7  C   UNL d   1       0.204 -21.483  25.990  0.00  0.00     0.085 A 
ATOM      8  C   UNL d   1       0.154 -24.006  25.089  0.00  0.00     0.094 A 
ATOM      9  C   UNL d   1       2.036 -22.190  26.642  0.00  0.00     0.075 A 
ATOM     10  C   UNL d   1       1.762 -21.207  26.849  0.00  0.00     0.071 A 
ATOM     11  C   UNL d   1       0.840 -20.851  26.521  0.00  0.00     0.074 A 
ENDROOT
BRANCH   5  12
ATOM     12  C   UNL d   1       1.310 -25.291  25.210  0.00  0.00    -0.002 A 
ATOM     13  C   UNL d   1       0.769 -26.051  25.571  0.00  0.00     0.014 A 
ATOM     14  C   UNL d   1       1.040 -26.994  25.376  0.00  0.00     0.001 A 
ATOM     15  C   UNL d   1       1.851 -27.177  24.820  0.00  0.00     0.000 A 
ATOM     16  C   UNL d   1       2.391 -26.417  24.459  0.00  0.00     0.001 A 
ATOM     17  C   UNL d   1       2.121 -25.474  24.654  0.00  0.00     0.014 A 
ENDBRANCH   5  12
BRANCH   7  18
ATOM     18  O   UNL d   1      -0.683 -21.152  25.670  0.00  0.00    -0.360 OA
ATOM     19  H   UNL d   1      -0.872 -21.279  25.093  0.00  0.00     0.217 HD
ENDBRANCH   7  18
BRANCH  10  20
ATOM     20  O   UNL d   1       2.380 -20.609  27.360  0.00  0.00    -0.361 OA
ATOM     21  H   UNL d   1       2.665 -20.140  27.071  0.00  0.00     0.217 HD
ENDBRANCH  10  20
TORSDOF 3
ENDMDL
