MODEL 1
REMARK VINA RESULT:    -9.184      0.000      0.000
REMARK INTER + INTRA:          -9.243
REMARK INTER:                 -11.079
REMARK INTRA:                   1.836
REMARK UNBOUND:                 1.821
REMARK  5 active torsions:
REMARK  status: ('A' for Active; 'I' for Inactive)
REMARK    1  A    between atoms: O_2  and  C_13 
REMARK    2  A    between atoms: O_3  and  C_19 
REMARK    3  A    between atoms: O_5  and  C_17 
REMARK    4  A    between atoms: O_6  and  C_21 
REMARK    5  A    between atoms: C_8  and  C_10 
ROOT
ATOM      1  O   UNL d   1      -0.207 -23.089  26.248  0.00  0.00    -0.309 OA
ATOM      2  O   UNL d   1       2.388 -23.652  24.853  0.00  0.00    -0.287 OA
ATOM      3  C   UNL d   1       0.759 -24.103  25.229  0.00  0.00     0.081 A 
ATOM      4  C   UNL d   1       0.557 -22.450  26.336  0.00  0.00     0.090 A 
ATOM      5  C   UNL d   1      -0.107 -23.915  25.694  0.00  0.00     0.095 A 
ATOM      6  C   UNL d   1       1.523 -23.464  25.318  0.00  0.00     0.190 A 
ATOM      7  C   UNL d   1       1.422 -22.638  25.871  0.00  0.00     0.094 A 
ATOM      8  C   UNL d   1       0.878 -24.960  24.649  0.00  0.00     0.085 A 
ATOM      9  C   UNL d   1      -0.912 -24.571  25.611  0.00  0.00     0.075 A 
ATOM     10  C   UNL d   1      -0.814 -25.434  25.036  0.00  0.00     0.071 A 
ATOM     11  C   UNL d   1       0.086 -25.630  24.552  0.00  0.00     0.074 A 
ENDROOT
BRANCH   4  12
ATOM     12  C   UNL d   1       0.456 -21.623  26.890  0.00  0.00     0.001 A 
ATOM     13  C   UNL d   1       0.553 -21.673  27.884  0.00  0.00     0.054 A 
ATOM     14  C   UNL d   1       0.452 -20.846  28.438  0.00  0.00     0.102 A 
ATOM     15  C   UNL d   1       0.255 -19.970  27.998  0.00  0.00     0.099 A 
ATOM     16  C   UNL d   1       0.158 -19.921  27.003  0.00  0.00     0.040 A 
ATOM     17  C   UNL d   1       0.259 -20.748  26.450  0.00  0.00     0.017 A 
BRANCH  14  18
ATOM     18  O   UNL d   1       0.549 -20.895  29.432  0.00  0.00    -0.353 OA
ATOM     19  C   UNL d   1       0.579 -21.785  29.888  0.00  0.00     0.210 C 
ENDBRANCH  14  18
BRANCH  15  20
ATOM     20  O   UNL d   1       0.154 -19.144  28.551  0.00  0.00    -0.358 OA
ATOM     21  H   UNL d   1      -0.396 -19.003  28.801  0.00  0.00     0.217 HD
ENDBRANCH  15  20
ENDBRANCH   4  12
BRANCH   8  22
ATOM     22  O   UNL d   1       1.748 -25.138  24.188  0.00  0.00    -0.360 OA
ATOM     23  H   UNL d   1       1.960 -25.718  24.141  0.00  0.00     0.217 HD
ENDBRANCH   8  22
BRANCH  10  24
ATOM     24  O   UNL d   1      -1.581 -26.070  24.950  0.00  0.00    -0.361 OA
ATOM     25  H   UNL d   1      -2.163 -25.857  24.964  0.00  0.00     0.217 HD
ENDBRANCH  10  24
TORSDOF 5
ENDMDL
MODEL 2
REMARK VINA RESULT:    -8.912      1.723      5.400
REMARK INTER + INTRA:          -8.915
REMARK INTER:                 -11.067
REMARK INTRA:                   2.151
REMARK UNBOUND:                 1.821
REMARK  5 active torsions:
REMARK  status: ('A' for Active; 'I' for Inactive)
REMARK    1  A    between atoms: O_2  and  C_13 
REMARK    2  A    between atoms: O_3  and  C_19 
REMARK    3  A    between atoms: O_5  and  C_17 
REMARK    4  A    between atoms: O_6  and  C_21 
REMARK    5  A    between atoms: C_8  and  C_10 
ROOT
ATOM      1  O   UNL d   1       1.433 -23.716  26.015  0.00  0.00    -0.309 OA
ATOM      2  O   UNL d   1      -1.019 -22.349  24.957  0.00  0.00    -0.287 OA
ATOM      3  C   UNL d   1       0.449 -22.298  25.875  0.00  0.00     0.081 A 
ATOM      4  C   UNL d   1       0.783 -24.223  25.449  0.00  0.00     0.090 A 
ATOM      5  C   UNL d   1       1.266 -22.753  26.228  0.00  0.00     0.095 A 
ATOM      6  C   UNL d   1      -0.202 -22.805  25.310  0.00  0.00     0.190 A 
ATOM      7  C   UNL d   1      -0.034 -23.767  25.097  0.00  0.00     0.094 A 
ATOM      8  C   UNL d   1       0.261 -21.296  26.089  0.00  0.00     0.085 A 
ATOM      9  C   UNL d   1       1.953 -22.238  26.819  0.00  0.00     0.075 A 
ATOM     10  C   UNL d   1       1.785 -21.235  27.045  0.00  0.00     0.071 A 
ATOM     11  C   UNL d   1       0.934 -20.761  26.678  0.00  0.00     0.074 A 
ENDROOT
BRANCH   4  12
ATOM     12  C   UNL d   1       0.950 -25.185  25.236  0.00  0.00     0.001 A 
ATOM     13  C   UNL d   1       1.885 -25.511  25.097  0.00  0.00     0.054 A 
ATOM     14  C   UNL d   1       2.053 -26.474  24.884  0.00  0.00     0.102 A 
ATOM     15  C   UNL d   1       1.285 -27.110  24.810  0.00  0.00     0.099 A 
ATOM     16  C   UNL d   1       0.350 -26.784  24.949  0.00  0.00     0.040 A 
ATOM     17  C   UNL d   1       0.183 -25.822  25.162  0.00  0.00     0.017 A 
BRANCH  14  18
ATOM     18  O   UNL d   1       2.988 -26.800  24.744  0.00  0.00    -0.353 OA
ATOM     19  C   UNL d   1       3.742 -26.389  25.255  0.00  0.00     0.210 C 
ENDBRANCH  14  18
BRANCH  15  20
ATOM     20  O   UNL d   1       1.452 -28.073  24.597  0.00  0.00    -0.358 OA
ATOM     21  H   UNL d   1       1.049 -28.506  24.781  0.00  0.00     0.217 HD
ENDBRANCH  15  20
ENDBRANCH   4  12
BRANCH   8  22
ATOM     22  O   UNL d   1      -0.560 -20.850  25.731  0.00  0.00    -0.360 OA
ATOM     23  H   UNL d   1      -0.783 -20.344  26.009  0.00  0.00     0.217 HD
ENDBRANCH   8  22
BRANCH  10  24
ATOM     24  O   UNL d   1       2.438 -20.731  27.611  0.00  0.00    -0.361 OA
ATOM     25  H   UNL d   1       2.245 -20.253  27.955  0.00  0.00     0.217 HD
ENDBRANCH  10  24
TORSDOF 5
ENDMDL
MODEL 3
REMARK VINA RESULT:    -8.890      1.726      5.891
REMARK INTER + INTRA:          -8.889
REMARK INTER:                 -10.720
REMARK INTRA:                   1.831
REMARK UNBOUND:                 1.821
REMARK  5 active torsions:
REMARK  status: ('A' for Active; 'I' for Inactive)
REMARK    1  A    between atoms: O_2  and  C_13 
REMARK    2  A    between atoms: O_3  and  C_19 
REMARK    3  A    between atoms: O_5  and  C_17 
REMARK    4  A    between atoms: O_6  and  C_21 
REMARK    5  A    between atoms: C_8  and  C_10 
ROOT
ATOM      1  O   UNL d   1       0.142 -19.541  27.086  0.00  0.00    -0.309 OA
ATOM      2  O   UNL d   1      -0.353 -20.162  29.979  0.00  0.00    -0.287 OA
ATOM      3  C   UNL d   1      -0.434 -19.058  28.647  0.00  0.00     0.081 A 
ATOM      4  C   UNL d   1       0.387 -20.438  27.454  0.00  0.00     0.090 A 
ATOM      5  C   UNL d   1      -0.269 -18.851  27.683  0.00  0.00     0.095 A 
ATOM      6  C   UNL d   1      -0.188 -19.955  29.015  0.00  0.00     0.190 A 
ATOM      7  C   UNL d   1       0.222 -20.645  28.419  0.00  0.00     0.094 A 
ATOM      8  C   UNL d   1      -0.860 -18.350  29.280  0.00  0.00     0.085 A 
ATOM      9  C   UNL d   1      -0.519 -17.922  27.284  0.00  0.00     0.075 A 
ATOM     10  C   UNL d   1      -0.947 -17.198  27.899  0.00  0.00     0.071 A 
ATOM     11  C   UNL d   1      -1.119 -17.413  28.903  0.00  0.00     0.074 A 
ENDROOT
BRANCH   4  12
ATOM     12  C   UNL d   1       0.798 -21.128  26.858  0.00  0.00     0.001 A 
ATOM     13  C   UNL d   1       0.215 -21.701  26.282  0.00  0.00     0.054 A 
ATOM     14  C   UNL d   1       0.626 -22.391  25.686  0.00  0.00     0.102 A 
ATOM     15  C   UNL d   1       1.619 -22.508  25.666  0.00  0.00     0.099 A 
ATOM     16  C   UNL d   1       2.201 -21.935  26.242  0.00  0.00     0.040 A 
ATOM     17  C   UNL d   1       1.791 -21.245  26.838  0.00  0.00     0.017 A 
BRANCH  14  18
ATOM     18  O   UNL d   1       0.043 -22.964  25.109  0.00  0.00    -0.353 OA
ATOM     19  C   UNL d   1      -0.917 -22.722  24.971  0.00  0.00     0.210 C 
ENDBRANCH  14  18
BRANCH  15  20
ATOM     20  O   UNL d   1       2.029 -23.198  25.069  0.00  0.00    -0.358 OA
ATOM     21  H   UNL d   1       2.116 -23.075  24.468  0.00  0.00     0.217 HD
ENDBRANCH  15  20
ENDBRANCH   4  12
BRANCH   8  22
ATOM     22  O   UNL d   1      -1.021 -18.568  30.242  0.00  0.00    -0.360 OA
ATOM     23  H   UNL d   1      -1.590 -18.515  30.481  0.00  0.00     0.217 HD
ENDBRANCH   8  22
BRANCH  10  24
ATOM     24  O   UNL d   1      -1.191 -16.302  27.527  0.00  0.00    -0.361 OA
ATOM     25  H   UNL d   1      -1.354 -16.249  26.932  0.00  0.00     0.217 HD
ENDBRANCH  10  24
TORSDOF 5
ENDMDL
MODEL 4
REMARK VINA RESULT:    -8.831      1.283      2.265
REMARK INTER + INTRA:          -8.817
REMARK INTER:                 -10.651
REMARK INTRA:                   1.834
REMARK UNBOUND:                 1.821
REMARK  5 active torsions:
REMARK  status: ('A' for Active; 'I' for Inactive)
REMARK    1  A    between atoms: O_2  and  C_13 
REMARK    2  A    between atoms: O_3  and  C_19 
REMARK    3  A    between atoms: O_5  and  C_17 
REMARK    4  A    between atoms: O_6  and  C_21 
REMARK    5  A    between atoms: C_8  and  C_10 
ROOT
ATOM      1  O   UNL d   1       1.534 -21.895  26.573  0.00  0.00    -0.309 OA
ATOM      2  O   UNL d   1      -0.588 -23.521  25.211  0.00  0.00    -0.287 OA
ATOM      3  C   UNL d   1       1.080 -23.244  25.585  0.00  0.00     0.081 A 
ATOM      4  C   UNL d   1       0.573 -21.631  26.653  0.00  0.00     0.090 A 
ATOM      5  C   UNL d   1       1.788 -22.702  26.039  0.00  0.00     0.095 A 
ATOM      6  C   UNL d   1       0.119 -22.979  25.665  0.00  0.00     0.190 A 
ATOM      7  C   UNL d   1      -0.135 -22.173  26.199  0.00  0.00     0.094 A 
ATOM      8  C   UNL d   1       1.330 -24.086  25.025  0.00  0.00     0.085 A 
ATOM      9  C   UNL d   1       2.793 -22.965  25.965  0.00  0.00     0.075 A 
ATOM     10  C   UNL d   1       3.065 -23.803  25.410  0.00  0.00     0.071 A 
ATOM     11  C   UNL d   1       2.329 -24.368  24.938  0.00  0.00     0.074 A 
ENDROOT
BRANCH   4  12
ATOM     12  C   UNL d   1       0.319 -20.824  27.187  0.00  0.00     0.001 A 
ATOM     13  C   UNL d   1       0.195 -20.899  28.176  0.00  0.00     0.054 A 
ATOM     14  C   UNL d   1      -0.059 -20.092  28.710  0.00  0.00     0.102 A 
ATOM     15  C   UNL d   1      -0.189 -19.211  28.255  0.00  0.00     0.099 A 
ATOM     16  C   UNL d   1      -0.065 -19.137  27.265  0.00  0.00     0.040 A 
ATOM     17  C   UNL d   1       0.189 -19.944  26.731  0.00  0.00     0.017 A 
BRANCH  14  18
ATOM     18  O   UNL d   1      -0.183 -20.166  29.700  0.00  0.00    -0.353 OA
ATOM     19  C   UNL d   1       0.157 -20.971  30.187  0.00  0.00     0.210 C 
ENDBRANCH  14  18
BRANCH  15  20
ATOM     20  O   UNL d   1      -0.443 -18.405  28.789  0.00  0.00    -0.358 OA
ATOM     21  H   UNL d   1      -0.005 -18.074  29.077  0.00  0.00     0.217 HD
ENDBRANCH  15  20
ENDBRANCH   4  12
BRANCH   8  22
ATOM     22  O   UNL d   1       0.614 -24.620  24.576  0.00  0.00    -0.360 OA
ATOM     23  H   UNL d   1       0.300 -25.049  24.895  0.00  0.00     0.217 HD
ENDBRANCH   8  22
BRANCH  10  24
ATOM     24  O   UNL d   1       4.027 -24.065  25.333  0.00  0.00    -0.361 OA
ATOM     25  H   UNL d   1       4.181 -24.659  25.245  0.00  0.00     0.217 HD
ENDBRANCH  10  24
TORSDOF 5
ENDMDL
MODEL 5
REMARK VINA RESULT:    -8.721      2.469      4.876
REMARK INTER + INTRA:          -8.685
REMARK INTER:                 -10.595
REMARK INTRA:                   1.910
REMARK UNBOUND:                 1.821
REMARK  5 active torsions:
REMARK  status: ('A' for Active; 'I' for Inactive)
REMARK    1  A    between atoms: O_2  and  C_13 
REMARK    2  A    between atoms: O_3  and  C_19 
REMARK    3  A    between atoms: O_5  and  C_17 
REMARK    4  A    between atoms: O_6  and  C_21 
REMARK    5  A    between atoms: C_8  and  C_10 
ROOT
ATOM      1  O   UNL d   1       1.521 -24.075  25.705  0.00  0.00    -0.309 OA
ATOM      2  O   UNL d   1      -0.732 -25.344  24.182  0.00  0.00    -0.287 OA
ATOM      3  C   UNL d   1      -0.047 -23.965  24.976  0.00  0.00     0.081 A 
ATOM      4  C   UNL d   1       1.587 -25.031  25.418  0.00  0.00     0.090 A 
ATOM      5  C   UNL d   1       0.704 -23.542  25.483  0.00  0.00     0.095 A 
ATOM      6  C   UNL d   1       0.019 -24.921  24.690  0.00  0.00     0.190 A 
ATOM      7  C   UNL d   1       0.836 -25.454  24.911  0.00  0.00     0.094 A 
ATOM      8  C   UNL d   1      -0.903 -23.422  24.739  0.00  0.00     0.085 A 
ATOM      9  C   UNL d   1       0.650 -22.547  25.788  0.00  0.00     0.075 A 
ATOM     10  C   UNL d   1      -0.198 -21.986  25.562  0.00  0.00     0.071 A 
ATOM     11  C   UNL d   1      -0.979 -22.426  25.033  0.00  0.00     0.074 A 
ENDROOT
BRANCH   4  12
ATOM     12  C   UNL d   1       2.403 -25.564  25.640  0.00  0.00     0.001 A 
ATOM     13  C   UNL d   1       2.634 -25.752  26.594  0.00  0.00     0.054 A 
ATOM     14  C   UNL d   1       3.451 -26.285  26.815  0.00  0.00     0.102 A 
ATOM     15  C   UNL d   1       4.037 -26.630  26.082  0.00  0.00     0.099 A 
ATOM     16  C   UNL d   1       3.806 -26.441  25.127  0.00  0.00     0.040 A 
ATOM     17  C   UNL d   1       2.989 -25.908  24.906  0.00  0.00     0.017 A 
BRANCH  14  18
ATOM     18  O   UNL d   1       3.681 -26.474  27.770  0.00  0.00    -0.353 OA
ATOM     19  C   UNL d   1       3.292 -25.911  28.499  0.00  0.00     0.210 C 
ENDBRANCH  14  18
BRANCH  15  20
ATOM     20  O   UNL d   1       4.853 -27.163  26.303  0.00  0.00    -0.358 OA
ATOM     21  H   UNL d   1       4.797 -27.731  26.546  0.00  0.00     0.217 HD
ENDBRANCH  15  20
ENDBRANCH   4  12
BRANCH   8  22
ATOM     22  O   UNL d   1      -1.648 -23.856  24.231  0.00  0.00    -0.360 OA
ATOM     23  H   UNL d   1      -1.905 -23.563  23.749  0.00  0.00     0.217 HD
ENDBRANCH   8  22
BRANCH  10  24
ATOM     24  O   UNL d   1      -0.259 -21.030  25.850  0.00  0.00    -0.361 OA
ATOM     25  H   UNL d   1      -0.491 -20.889  26.407  0.00  0.00     0.217 HD
ENDBRANCH  10  24
TORSDOF 5
ENDMDL
