MODEL 1
REMARK VINA RESULT:   -10.303      0.000      0.000
REMARK INTER + INTRA:          -8.427
REMARK INTER:                 -11.414
REMARK INTRA:                   2.988
REMARK UNBOUND:                 3.082
REMARK  2 active torsions:
REMARK  status: ('A' for Active; 'I' for Inactive)
REMARK    1  A    between atoms: O_3  and  C_17 
REMARK    2  A    between atoms: O_4  and  C_21 
ROOT
ATOM      1  O   UNL d   1     -19.353 -10.688   8.736  0.00  0.00    -0.323 OA
ATOM      2  O   UNL d   1     -18.235 -11.457   7.751  0.00  0.00    -0.323 OA
ATOM      3  N   UNL d   1     -16.830 -12.182  12.190  0.00  0.00    -0.400 N 
ATOM      4  C   UNL d   1     -17.604 -11.696  11.784  0.00  0.00     0.117 A 
ATOM      5  C   UNL d   1     -18.306 -11.212  12.382  0.00  0.00     0.069 A 
ATOM      6  C   UNL d   1     -17.711 -11.669  10.790  0.00  0.00    -0.026 A 
ATOM      7  C   UNL d   1     -16.163 -12.641  11.603  0.00  0.00     0.122 A 
ATOM      8  C   UNL d   1     -16.706 -12.218  13.223  0.00  0.00     0.160 A 
ATOM      9  C   UNL d   1     -16.271 -12.614  10.609  0.00  0.00     0.058 A 
ATOM     10  C   UNL d   1     -17.044 -12.128  10.202  0.00  0.00    -0.045 A 
ATOM     11  C   UNL d   1     -18.201 -11.236  13.418  0.00  0.00    -0.045 A 
ATOM     12  C   UNL d   1     -17.396 -11.742  13.841  0.00  0.00     0.002 A 
ATOM     13  C   UNL d   1     -18.522 -11.158  10.381  0.00  0.00     0.049 A 
ATOM     14  C   UNL d   1     -17.142 -12.108   9.165  0.00  0.00     0.047 A 
ATOM     15  C   UNL d   1     -17.266 -11.781  14.918  0.00  0.00     0.110 A 
ATOM     16  C   UNL d   1     -18.933 -10.733  14.042  0.00  0.00     0.011 A 
ATOM     17  C   UNL d   1     -18.640 -11.125   9.346  0.00  0.00     0.105 A 
ATOM     18  C   UNL d   1     -17.946 -11.604   8.735  0.00  0.00     0.105 A 
ATOM     19  C   UNL d   1     -17.985 -11.285  15.562  0.00  0.00     0.102 A 
ATOM     20  C   UNL d   1     -18.824 -10.758  15.121  0.00  0.00     0.040 A 
ATOM     21  C   UNL d   1     -19.103 -10.893   7.752  0.00  0.00     0.352 A 
ENDROOT
BRANCH  15  22
ATOM     22  O   UNL d   1     -16.489 -12.270  15.314  0.00  0.00    -0.352 OA
ATOM     23  C   UNL d   1     -15.642 -11.780  15.521  0.00  0.00     0.210 C 
ENDBRANCH  15  22
BRANCH  19  24
ATOM     24  O   UNL d   1     -17.875 -11.314  16.555  0.00  0.00    -0.353 OA
ATOM     25  C   UNL d   1     -18.663 -11.164  17.151  0.00  0.00     0.210 C 
ENDBRANCH  19  24
TORSDOF 2
ENDMDL
MODEL 2
REMARK VINA RESULT:    -9.957     13.207     16.679
REMARK INTER + INTRA:          -8.039
REMARK INTER:                 -11.081
REMARK INTRA:                   3.042
REMARK UNBOUND:                 3.082
REMARK  2 active torsions:
REMARK  status: ('A' for Active; 'I' for Inactive)
REMARK    1  A    between atoms: O_3  and  C_17 
REMARK    2  A    between atoms: O_4  and  C_21 
ROOT
ATOM      1  O   UNL d   1     -31.588  -7.119  25.134  0.00  0.00    -0.323 OA
ATOM      2  O   UNL d   1     -32.779  -6.203  24.390  0.00  0.00    -0.323 OA
ATOM      3  N   UNL d   1     -30.448  -8.418  20.946  0.00  0.00    -0.400 N 
ATOM      4  C   UNL d   1     -30.357  -8.407  21.942  0.00  0.00     0.117 A 
ATOM      5  C   UNL d   1     -29.622  -8.971  22.419  0.00  0.00     0.069 A 
ATOM      6  C   UNL d   1     -30.977  -7.849  22.494  0.00  0.00    -0.026 A 
ATOM      7  C   UNL d   1     -31.158  -7.872  20.502  0.00  0.00     0.122 A 
ATOM      8  C   UNL d   1     -29.810  -8.994  20.358  0.00  0.00     0.160 A 
ATOM      9  C   UNL d   1     -31.778  -7.314  21.054  0.00  0.00     0.058 A 
ATOM     10  C   UNL d   1     -31.687  -7.303  22.050  0.00  0.00    -0.045 A 
ATOM     11  C   UNL d   1     -28.973  -9.554  21.850  0.00  0.00    -0.045 A 
ATOM     12  C   UNL d   1     -29.067  -9.566  20.814  0.00  0.00     0.002 A 
ATOM     13  C   UNL d   1     -30.871  -7.848  23.531  0.00  0.00     0.049 A 
ATOM     14  C   UNL d   1     -32.340  -6.717  22.612  0.00  0.00     0.047 A 
ATOM     15  C   UNL d   1     -28.403 -10.166  20.201  0.00  0.00     0.110 A 
ATOM     16  C   UNL d   1     -28.208 -10.141  22.347  0.00  0.00     0.011 A 
ATOM     17  C   UNL d   1     -31.512  -7.269  24.112  0.00  0.00     0.105 A 
ATOM     18  C   UNL d   1     -32.252  -6.700  23.650  0.00  0.00     0.105 A 
ATOM     19  C   UNL d   1     -27.629 -10.762  20.675  0.00  0.00     0.102 A 
ATOM     20  C   UNL d   1     -27.531 -10.749  21.755  0.00  0.00     0.040 A 
ATOM     21  C   UNL d   1     -32.370  -6.461  25.305  0.00  0.00     0.352 A 
ENDROOT
BRANCH  15  22
ATOM     22  O   UNL d   1     -28.502 -10.170  19.206  0.00  0.00    -0.352 OA
ATOM     23  C   UNL d   1     -29.112 -10.829  18.766  0.00  0.00     0.210 C 
ENDBRANCH  15  22
BRANCH  19  24
ATOM     24  O   UNL d   1     -27.011 -11.318  20.120  0.00  0.00    -0.353 OA
ATOM     25  C   UNL d   1     -26.046 -11.392  20.368  0.00  0.00     0.210 C 
ENDBRANCH  19  24
TORSDOF 2
ENDMDL
MODEL 3
REMARK VINA RESULT:    -9.604      1.086      5.533
REMARK INTER + INTRA:          -7.645
REMARK INTER:                 -10.623
REMARK INTRA:                   2.978
REMARK UNBOUND:                 3.082
REMARK  2 active torsions:
REMARK  status: ('A' for Active; 'I' for Inactive)
REMARK    1  A    between atoms: O_3  and  C_17 
REMARK    2  A    between atoms: O_4  and  C_21 
ROOT
ATOM      1  O   UNL d   1     -19.700 -10.025  15.541  0.00  0.00    -0.323 OA
ATOM      2  O   UNL d   1     -18.756 -10.689  16.757  0.00  0.00    -0.323 OA
ATOM      3  N   UNL d   1     -16.872 -12.101  12.675  0.00  0.00    -0.400 N 
ATOM      4  C   UNL d   1     -17.659 -11.531  12.909  0.00  0.00     0.117 A 
ATOM      5  C   UNL d   1     -18.255 -11.111  12.165  0.00  0.00     0.069 A 
ATOM      6  C   UNL d   1     -17.883 -11.357  13.868  0.00  0.00    -0.026 A 
ATOM      7  C   UNL d   1     -16.308 -12.498  13.400  0.00  0.00     0.122 A 
ATOM      8  C   UNL d   1     -16.626 -12.291  11.681  0.00  0.00     0.160 A 
ATOM      9  C   UNL d   1     -16.533 -12.324  14.359  0.00  0.00     0.058 A 
ATOM     10  C   UNL d   1     -17.320 -11.753  14.593  0.00  0.00    -0.045 A 
ATOM     11  C   UNL d   1     -18.028 -11.288  11.164  0.00  0.00    -0.045 A 
ATOM     12  C   UNL d   1     -17.208 -11.882  10.921  0.00  0.00     0.002 A 
ATOM     13  C   UNL d   1     -18.706 -10.760  14.096  0.00  0.00     0.049 A 
ATOM     14  C   UNL d   1     -17.541 -11.581  15.596  0.00  0.00     0.047 A 
ATOM     15  C   UNL d   1     -16.952 -12.080   9.885  0.00  0.00     0.110 A 
ATOM     16  C   UNL d   1     -18.648 -10.850  10.389  0.00  0.00     0.011 A 
ATOM     17  C   UNL d   1     -18.946 -10.574  15.093  0.00  0.00     0.105 A 
ATOM     18  C   UNL d   1     -18.360 -10.987  15.848  0.00  0.00     0.105 A 
ATOM     19  C   UNL d   1     -17.558 -11.653   9.093  0.00  0.00     0.102 A 
ATOM     20  C   UNL d   1     -18.412 -11.034   9.346  0.00  0.00     0.040 A 
ATOM     21  C   UNL d   1     -19.583 -10.096  16.568  0.00  0.00     0.352 A 
ENDROOT
BRANCH  15  22
ATOM     22  O   UNL d   1     -16.162 -12.652   9.662  0.00  0.00    -0.352 OA
ATOM     23  C   UNL d   1     -16.270 -13.642   9.576  0.00  0.00     0.210 C 
ENDBRANCH  15  22
BRANCH  19  24
ATOM     24  O   UNL d   1     -17.331 -11.829   8.135  0.00  0.00    -0.353 OA
ATOM     25  C   UNL d   1     -17.784 -11.311   7.410  0.00  0.00     0.210 C 
ENDBRANCH  19  24
TORSDOF 2
ENDMDL
MODEL 4
REMARK VINA RESULT:    -9.586      1.103      5.853
REMARK INTER + INTRA:          -7.625
REMARK INTER:                 -10.680
REMARK INTRA:                   3.055
REMARK UNBOUND:                 3.082
REMARK  2 active torsions:
REMARK  status: ('A' for Active; 'I' for Inactive)
REMARK    1  A    between atoms: O_3  and  C_17 
REMARK    2  A    between atoms: O_4  and  C_21 
ROOT
ATOM      1  O   UNL d   1     -18.969 -10.628  14.276  0.00  0.00    -0.323 OA
ATOM      2  O   UNL d   1     -17.699 -11.407  15.043  0.00  0.00    -0.323 OA
ATOM      3  N   UNL d   1     -17.146 -12.173  10.427  0.00  0.00    -0.400 N 
ATOM      4  C   UNL d   1     -17.825 -11.674  10.965  0.00  0.00     0.117 A 
ATOM      5  C   UNL d   1     -18.620 -11.185  10.503  0.00  0.00     0.069 A 
ATOM      6  C   UNL d   1     -17.746 -11.641  11.962  0.00  0.00    -0.026 A 
ATOM      7  C   UNL d   1     -16.388 -12.638  10.885  0.00  0.00     0.122 A 
ATOM      8  C   UNL d   1     -17.214 -12.216   9.389  0.00  0.00     0.160 A 
ATOM      9  C   UNL d   1     -16.309 -12.604  11.881  0.00  0.00     0.058 A 
ATOM     10  C   UNL d   1     -16.989 -12.106  12.419  0.00  0.00    -0.045 A 
ATOM     11  C   UNL d   1     -18.708 -11.215   9.465  0.00  0.00    -0.045 A 
ATOM     12  C   UNL d   1     -18.001 -11.734   8.905  0.00  0.00     0.002 A 
ATOM     13  C   UNL d   1     -18.462 -11.117  12.509  0.00  0.00     0.049 A 
ATOM     14  C   UNL d   1     -16.894 -12.080  13.457  0.00  0.00     0.047 A 
ATOM     15  C   UNL d   1     -18.072 -11.780   7.823  0.00  0.00     0.110 A 
ATOM     16  C   UNL d   1     -19.536 -10.706   8.984  0.00  0.00     0.011 A 
ATOM     17  C   UNL d   1     -18.387 -11.078  13.548  0.00  0.00     0.105 A 
ATOM     18  C   UNL d   1     -17.598 -11.562  14.024  0.00  0.00     0.105 A 
ATOM     19  C   UNL d   1     -18.891 -11.278   7.319  0.00  0.00     0.102 A 
ATOM     20  C   UNL d   1     -19.628 -10.737   7.903  0.00  0.00     0.040 A 
ATOM     21  C   UNL d   1     -18.545 -10.831  15.198  0.00  0.00     0.352 A 
ENDROOT
BRANCH  15  22
ATOM     22  O   UNL d   1     -17.387 -12.281   7.294  0.00  0.00    -0.352 OA
ATOM     23  C   UNL d   1     -17.531 -13.246   7.076  0.00  0.00     0.210 C 
ENDBRANCH  15  22
BRANCH  19  24
ATOM     24  O   UNL d   1     -18.966 -11.314   6.322  0.00  0.00    -0.353 OA
ATOM     25  C   UNL d   1     -19.242 -10.499   5.812  0.00  0.00     0.210 C 
ENDBRANCH  19  24
TORSDOF 2
ENDMDL
MODEL 5
REMARK VINA RESULT:    -9.469      1.172      6.090
REMARK INTER + INTRA:          -7.494
REMARK INTER:                 -10.506
REMARK INTRA:                   3.012
REMARK UNBOUND:                 3.082
REMARK  2 active torsions:
REMARK  status: ('A' for Active; 'I' for Inactive)
REMARK    1  A    between atoms: O_3  and  C_17 
REMARK    2  A    between atoms: O_4  and  C_21 
ROOT
ATOM      1  O   UNL d   1     -15.524 -11.974  16.890  0.00  0.00    -0.323 OA
ATOM      2  O   UNL d   1     -16.650 -11.125  17.797  0.00  0.00    -0.323 OA
ATOM      3  N   UNL d   1     -18.277 -11.202  13.375  0.00  0.00    -0.400 N 
ATOM      4  C   UNL d   1     -17.457 -11.570  13.813  0.00  0.00     0.117 A 
ATOM      5  C   UNL d   1     -16.748 -12.100  13.263  0.00  0.00     0.069 A 
ATOM      6  C   UNL d   1     -17.309 -11.432  14.793  0.00  0.00    -0.026 A 
ATOM      7  C   UNL d   1     -18.948 -10.696  13.916  0.00  0.00     0.122 A 
ATOM      8  C   UNL d   1     -18.445 -11.338  12.356  0.00  0.00     0.160 A 
ATOM      9  C   UNL d   1     -18.800 -10.558  14.895  0.00  0.00     0.058 A 
ATOM     10  C   UNL d   1     -17.980 -10.926  15.334  0.00  0.00    -0.045 A 
ATOM     11  C   UNL d   1     -16.896 -12.248  12.243  0.00  0.00    -0.045 A 
ATOM     12  C   UNL d   1     -17.749 -11.864  11.786  0.00  0.00     0.002 A 
ATOM     13  C   UNL d   1     -16.450 -11.822  15.235  0.00  0.00     0.049 A 
ATOM     14  C   UNL d   1     -17.840 -10.774  16.354  0.00  0.00     0.047 A 
ATOM     15  C   UNL d   1     -17.925 -12.005  10.725  0.00  0.00     0.110 A 
ATOM     16  C   UNL d   1     -16.158 -12.799  11.670  0.00  0.00     0.011 A 
ATOM     17  C   UNL d   1     -16.288 -11.683  16.255  0.00  0.00     0.105 A 
ATOM     18  C   UNL d   1     -16.988 -11.155  16.818  0.00  0.00     0.105 A 
ATOM     19  C   UNL d   1     -17.201 -12.554  10.131  0.00  0.00     0.102 A 
ATOM     20  C   UNL d   1     -16.311 -12.953  10.607  0.00  0.00     0.040 A 
ATOM     21  C   UNL d   1     -15.748 -11.631  17.841  0.00  0.00     0.352 A 
ENDROOT
BRANCH  15  22
ATOM     22  O   UNL d   1     -18.748 -11.633  10.296  0.00  0.00    -0.352 OA
ATOM     23  C   UNL d   1     -18.726 -10.727   9.875  0.00  0.00     0.210 C 
ENDBRANCH  15  22
BRANCH  19  24
ATOM     24  O   UNL d   1     -17.352 -12.690   9.152  0.00  0.00    -0.353 OA
ATOM     25  C   UNL d   1     -17.005 -13.512   8.702  0.00  0.00     0.210 C 
ENDBRANCH  19  24
TORSDOF 2
ENDMDL
