MODEL 1
REMARK VINA RESULT:   -12.262      0.000      0.000
REMARK INTER + INTRA:          -8.044
REMARK INTER:                 -16.949
REMARK INTRA:                   8.905
REMARK UNBOUND:                 8.519
REMARK  9 active torsions:
REMARK  status: ('A' for Active; 'I' for Inactive)
REMARK    1  A    between atoms: O_3  and  C_17 
REMARK    2  A    between atoms: O_4  and  C_18 
REMARK    3  A    between atoms: O_5  and  C_19 
REMARK    4  A    between atoms: O_7  and  C_32 
REMARK    5  A    between atoms: O_9  and  C_36 
REMARK    6  A    between atoms: O_10  and  C_40 
REMARK    7  A    between atoms: C_11  and  C_13 
REMARK    8  A    between atoms: C_15  and  C_20 
REMARK    9  A    between atoms: C_22  and  C_29 
ROOT
ATOM      1  O   UNL d   1      12.927  10.452   1.485  0.00  0.00    -0.308 OA
ATOM      2  O   UNL d   1       9.961  11.170   1.815  0.00  0.00    -0.287 OA
ATOM      3  C   UNL d   1      13.129  11.909   0.519  0.00  0.00     0.045 A 
ATOM      4  C   UNL d   1      12.529  11.311   1.051  0.00  0.00     0.107 A 
ATOM      5  C   UNL d   1      11.562  11.542   1.160  0.00  0.00     0.082 A 
ATOM      6  C   UNL d   1      12.761  12.737   0.096  0.00  0.00     0.082 A 
ATOM      7  C   UNL d   1      11.195  12.370   0.738  0.00  0.00     0.085 A 
ATOM      8  C   UNL d   1      11.794  12.968   0.205  0.00  0.00     0.075 A 
ATOM      9  C   UNL d   1      12.308   9.825   2.041  0.00  0.00     0.090 A 
ATOM     10  C   UNL d   1      10.926  10.929   1.712  0.00  0.00     0.190 A 
ATOM     11  C   UNL d   1      11.301  10.065   2.156  0.00  0.00     0.094 A 
ENDROOT
BRANCH   3  12
ATOM     12  C   UNL d   1      14.095  11.678   0.409  0.00  0.00     0.014 A 
ATOM     13  C   UNL d   1      14.394  11.138  -0.377  0.00  0.00     0.029 A 
ATOM     14  C   UNL d   1      15.361  10.907  -0.487  0.00  0.00    -0.001 A 
ATOM     15  C   UNL d   1      16.029  11.217   0.190  0.00  0.00     0.017 A 
ATOM     16  C   UNL d   1      15.730  11.758   0.976  0.00  0.00     0.038 A 
ATOM     17  C   UNL d   1      14.763  11.988   1.086  0.00  0.00     0.076 A 
BRANCH  14  18
ATOM     18  C   UNL d   1      15.660  10.366  -1.273  0.00  0.00     0.090 A 
ATOM     19  O   UNL d   1      15.004  10.111  -1.983  0.00  0.00    -0.309 OA
ATOM     20  C   UNL d   1      15.303   9.570  -2.769  0.00  0.00     0.095 A 
ATOM     21  C   UNL d   1      16.259   9.284  -2.845  0.00  0.00     0.081 A 
ATOM     22  C   UNL d   1      14.608   9.312  -3.501  0.00  0.00     0.075 A 
ATOM     23  C   UNL d   1      16.915   9.539  -2.135  0.00  0.00     0.190 A 
ATOM     24  C   UNL d   1      16.585   8.721  -3.658  0.00  0.00     0.085 A 
ATOM     25  O   UNL d   1      17.870   9.253  -2.211  0.00  0.00    -0.287 OA
ATOM     26  C   UNL d   1      16.616  10.080  -1.349  0.00  0.00     0.094 A 
ATOM     27  C   UNL d   1      15.907   8.451  -4.402  0.00  0.00     0.074 A 
ATOM     28  C   UNL d   1      14.912   8.749  -4.323  0.00  0.00     0.071 A 
BRANCH  24  29
ATOM     29  O   UNL d   1      17.542   8.440  -3.724  0.00  0.00    -0.360 OA
ATOM     30  H   UNL d   1      17.690   7.901  -3.992  0.00  0.00     0.217 HD
ENDBRANCH  24  29
BRANCH  28  31
ATOM     31  O   UNL d   1      14.253   8.496  -5.031  0.00  0.00    -0.361 OA
ATOM     32  H   UNL d   1      13.660   8.671  -4.980  0.00  0.00     0.217 HD
ENDBRANCH  28  31
ENDBRANCH  14  18
BRANCH  17  33
ATOM     33  O   UNL d   1      14.464  12.529   1.872  0.00  0.00    -0.360 OA
ATOM     34  H   UNL d   1      14.118  13.036   1.786  0.00  0.00     0.217 HD
ENDBRANCH  17  33
ENDBRANCH   3  12
BRANCH   6  35
ATOM     35  O   UNL d   1      13.361  13.335  -0.437  0.00  0.00    -0.360 OA
ATOM     36  H   UNL d   1      13.322  13.950  -0.372  0.00  0.00     0.217 HD
ENDBRANCH   6  35
BRANCH   9  37
ATOM     37  C   UNL d   1      12.680   8.997   2.463  0.00  0.00    -0.002 A 
ATOM     38  C   UNL d   1      13.224   9.064   3.299  0.00  0.00     0.017 A 
ATOM     39  C   UNL d   1      13.596   8.237   3.721  0.00  0.00     0.037 A 
ATOM     40  C   UNL d   1      13.423   7.344   3.306  0.00  0.00     0.065 A 
ATOM     41  C   UNL d   1      12.879   7.277   2.470  0.00  0.00     0.037 A 
ATOM     42  C   UNL d   1      12.507   8.104   2.049  0.00  0.00     0.017 A 
BRANCH  40  43
ATOM     43  O   UNL d   1      13.795   6.516   3.728  0.00  0.00    -0.361 OA
ATOM     44  H   UNL d   1      13.966   6.522   4.324  0.00  0.00     0.217 HD
ENDBRANCH  40  43
ENDBRANCH   9  37
BRANCH   7  45
ATOM     45  O   UNL d   1      10.228  12.601   0.847  0.00  0.00    -0.360 OA
ATOM     46  H   UNL d   1       9.848  12.587   0.357  0.00  0.00     0.217 HD
ENDBRANCH   7  45
TORSDOF 9
ENDMDL
MODEL 2
REMARK VINA RESULT:   -12.222     27.056     29.765
REMARK INTER + INTRA:          -7.990
REMARK INTER:                 -17.082
REMARK INTRA:                   9.092
REMARK UNBOUND:                 8.519
REMARK  9 active torsions:
REMARK  status: ('A' for Active; 'I' for Inactive)
REMARK    1  A    between atoms: O_3  and  C_17 
REMARK    2  A    between atoms: O_4  and  C_18 
REMARK    3  A    between atoms: O_5  and  C_19 
REMARK    4  A    between atoms: O_7  and  C_32 
REMARK    5  A    between atoms: O_9  and  C_36 
REMARK    6  A    between atoms: O_10  and  C_40 
REMARK    7  A    between atoms: C_11  and  C_13 
REMARK    8  A    between atoms: C_15  and  C_20 
REMARK    9  A    between atoms: C_22  and  C_29 
ROOT
ATOM      1  O   UNL d   1      13.114  39.504   4.769  0.00  0.00    -0.308 OA
ATOM      2  O   UNL d   1      12.058  40.505   7.471  0.00  0.00    -0.287 OA
ATOM      3  C   UNL d   1      13.938  38.202   5.620  0.00  0.00     0.045 A 
ATOM      4  C   UNL d   1      13.354  39.013   5.656  0.00  0.00     0.107 A 
ATOM      5  C   UNL d   1      13.008  39.342   6.534  0.00  0.00     0.082 A 
ATOM      6  C   UNL d   1      14.176  37.721   6.464  0.00  0.00     0.082 A 
ATOM      7  C   UNL d   1      13.246  38.860   7.378  0.00  0.00     0.085 A 
ATOM      8  C   UNL d   1      13.831  38.050   7.342  0.00  0.00     0.075 A 
ATOM      9  C   UNL d   1      12.506  40.349   4.797  0.00  0.00     0.090 A 
ATOM     10  C   UNL d   1      12.398  40.185   6.586  0.00  0.00     0.190 A 
ATOM     11  C   UNL d   1      12.145  40.692   5.713  0.00  0.00     0.094 A 
ENDROOT
BRANCH   3  12
ATOM     12  C   UNL d   1      14.284  37.873   4.742  0.00  0.00     0.014 A 
ATOM     13  C   UNL d   1      15.081  38.307   4.324  0.00  0.00     0.029 A 
ATOM     14  C   UNL d   1      15.427  37.978   3.445  0.00  0.00    -0.001 A 
ATOM     15  C   UNL d   1      14.975  37.214   2.984  0.00  0.00     0.017 A 
ATOM     16  C   UNL d   1      14.178  36.780   3.402  0.00  0.00     0.038 A 
ATOM     17  C   UNL d   1      13.832  37.109   4.281  0.00  0.00     0.076 A 
BRANCH  14  18
ATOM     18  C   UNL d   1      16.225  38.413   3.027  0.00  0.00     0.090 A 
ATOM     19  O   UNL d   1      16.413  39.380   3.196  0.00  0.00    -0.309 OA
ATOM     20  C   UNL d   1      17.211  39.815   2.778  0.00  0.00     0.095 A 
ATOM     21  C   UNL d   1      17.820  39.282   2.191  0.00  0.00     0.081 A 
ATOM     22  C   UNL d   1      17.394  40.824   2.964  0.00  0.00     0.075 A 
ATOM     23  C   UNL d   1      17.632  38.315   2.022  0.00  0.00     0.190 A 
ATOM     24  C   UNL d   1      18.655  39.721   1.749  0.00  0.00     0.085 A 
ATOM     25  O   UNL d   1      18.242  37.782   1.435  0.00  0.00    -0.287 OA
ATOM     26  C   UNL d   1      16.834  37.880   2.440  0.00  0.00     0.094 A 
ATOM     27  C   UNL d   1      18.858  40.729   1.920  0.00  0.00     0.074 A 
ATOM     28  C   UNL d   1      18.223  41.284   2.532  0.00  0.00     0.071 A 
BRANCH  24  29
ATOM     29  O   UNL d   1      19.258  39.179   1.164  0.00  0.00    -0.360 OA
ATOM     30  H   UNL d   1      19.725  38.856   1.414  0.00  0.00     0.217 HD
ENDBRANCH  24  29
BRANCH  28  31
ATOM     31  O   UNL d   1      18.408  42.252   2.703  0.00  0.00    -0.361 OA
ATOM     32  H   UNL d   1      18.621  42.612   2.246  0.00  0.00     0.217 HD
ENDBRANCH  28  31
ENDBRANCH  14  18
BRANCH  17  33
ATOM     33  O   UNL d   1      13.034  36.674   4.699  0.00  0.00    -0.360 OA
ATOM     34  H   UNL d   1      13.083  36.409   5.257  0.00  0.00     0.217 HD
ENDBRANCH  17  33
ENDBRANCH   3  12
BRANCH   6  35
ATOM     35  O   UNL d   1      14.761  36.910   6.428  0.00  0.00    -0.360 OA
ATOM     36  H   UNL d   1      15.203  36.865   5.996  0.00  0.00     0.217 HD
ENDBRANCH   6  35
BRANCH   9  37
ATOM     37  C   UNL d   1      12.270  40.827   3.952  0.00  0.00    -0.002 A 
ATOM     38  C   UNL d   1      12.986  41.064   3.295  0.00  0.00     0.017 A 
ATOM     39  C   UNL d   1      12.751  41.543   2.449  0.00  0.00     0.037 A 
ATOM     40  C   UNL d   1      11.799  41.784   2.260  0.00  0.00     0.065 A 
ATOM     41  C   UNL d   1      11.083  41.547   2.916  0.00  0.00     0.037 A 
ATOM     42  C   UNL d   1      11.319  41.069   3.762  0.00  0.00     0.017 A 
BRANCH  40  43
ATOM     43  O   UNL d   1      11.563  42.263   1.414  0.00  0.00    -0.361 OA
ATOM     44  H   UNL d   1      11.881  42.149   0.894  0.00  0.00     0.217 HD
ENDBRANCH  40  43
ENDBRANCH   9  37
BRANCH   7  45
ATOM     45  O   UNL d   1      12.900  39.190   8.256  0.00  0.00    -0.360 OA
ATOM     46  H   UNL d   1      12.366  39.504   8.281  0.00  0.00     0.217 HD
ENDBRANCH   7  45
TORSDOF 9
ENDMDL
MODEL 3
REMARK VINA RESULT:   -12.158     13.657     16.378
REMARK INTER + INTRA:          -7.903
REMARK INTER:                 -16.526
REMARK INTRA:                   8.623
REMARK UNBOUND:                 8.519
REMARK  9 active torsions:
REMARK  status: ('A' for Active; 'I' for Inactive)
REMARK    1  A    between atoms: O_3  and  C_17 
REMARK    2  A    between atoms: O_4  and  C_18 
REMARK    3  A    between atoms: O_5  and  C_19 
REMARK    4  A    between atoms: O_7  and  C_32 
REMARK    5  A    between atoms: O_9  and  C_36 
REMARK    6  A    between atoms: O_10  and  C_40 
REMARK    7  A    between atoms: C_11  and  C_13 
REMARK    8  A    between atoms: C_15  and  C_20 
REMARK    9  A    between atoms: C_22  and  C_29 
ROOT
ATOM      1  O   UNL d   1       8.139   1.473  11.946  0.00  0.00    -0.308 OA
ATOM      2  O   UNL d   1       7.288  -1.389  12.654  0.00  0.00    -0.287 OA
ATOM      3  C   UNL d   1       6.878   1.499  10.718  0.00  0.00     0.045 A 
ATOM      4  C   UNL d   1       7.356   1.004  11.443  0.00  0.00     0.107 A 
ATOM      5  C   UNL d   1       7.082   0.071  11.676  0.00  0.00     0.082 A 
ATOM      6  C   UNL d   1       6.125   1.062  10.226  0.00  0.00     0.082 A 
ATOM      7  C   UNL d   1       6.329  -0.366  11.185  0.00  0.00     0.085 A 
ATOM      8  C   UNL d   1       5.851   0.129  10.460  0.00  0.00     0.075 A 
ATOM      9  C   UNL d   1       8.642   0.963  12.703  0.00  0.00     0.090 A 
ATOM     10  C   UNL d   1       7.571  -0.457  12.429  0.00  0.00     0.190 A 
ATOM     11  C   UNL d   1       8.356  -0.009  12.946  0.00  0.00     0.094 A 
ENDROOT
BRANCH   3  12
ATOM     12  C   UNL d   1       7.153   2.432  10.485  0.00  0.00     0.014 A 
ATOM     13  C   UNL d   1       6.745   3.208  10.965  0.00  0.00     0.029 A 
ATOM     14  C   UNL d   1       7.019   4.141  10.732  0.00  0.00    -0.001 A 
ATOM     15  C   UNL d   1       7.702   4.298  10.018  0.00  0.00     0.017 A 
ATOM     16  C   UNL d   1       8.110   3.522   9.538  0.00  0.00     0.038 A 
ATOM     17  C   UNL d   1       7.835   2.589   9.771  0.00  0.00     0.076 A 
BRANCH  14  18
ATOM     18  C   UNL d   1       6.611   4.918  11.213  0.00  0.00     0.090 A 
ATOM     19  O   UNL d   1       5.617   5.003  11.271  0.00  0.00    -0.309 OA
ATOM     20  C   UNL d   1       5.209   5.779  11.752  0.00  0.00     0.095 A 
ATOM     21  C   UNL d   1       5.796   6.470  12.174  0.00  0.00     0.081 A 
ATOM     22  C   UNL d   1       4.171   5.854  11.804  0.00  0.00     0.075 A 
ATOM     23  C   UNL d   1       6.790   6.385  12.116  0.00  0.00     0.190 A 
ATOM     24  C   UNL d   1       5.385   7.284  12.678  0.00  0.00     0.085 A 
ATOM     25  O   UNL d   1       7.377   7.076  12.538  0.00  0.00    -0.287 OA
ATOM     26  C   UNL d   1       7.198   5.608  11.635  0.00  0.00     0.094 A 
ATOM     27  C   UNL d   1       4.350   7.380  12.743  0.00  0.00     0.074 A 
ATOM     28  C   UNL d   1       3.738   6.660  12.303  0.00  0.00     0.071 A 
BRANCH  24  29
ATOM     29  O   UNL d   1       5.981   7.969  13.097  0.00  0.00    -0.360 OA
ATOM     30  H   UNL d   1       5.928   8.099  13.701  0.00  0.00     0.217 HD
ENDBRANCH  24  29
BRANCH  28  31
ATOM     31  O   UNL d   1       2.743   6.742  12.359  0.00  0.00    -0.361 OA
ATOM     32  H   UNL d   1       2.403   6.260  12.551  0.00  0.00     0.217 HD
ENDBRANCH  28  31
ENDBRANCH  14  18
BRANCH  17  33
ATOM     33  O   UNL d   1       8.243   1.813   9.290  0.00  0.00    -0.360 OA
ATOM     34  H   UNL d   1       8.292   1.263   9.574  0.00  0.00     0.217 HD
ENDBRANCH  17  33
ENDBRANCH   3  12
BRANCH   6  35
ATOM     35  O   UNL d   1       5.647   1.557   9.501  0.00  0.00    -0.360 OA
ATOM     36  H   UNL d   1       5.036   1.656   9.544  0.00  0.00     0.217 HD
ENDBRANCH   6  35
BRANCH   9  37
ATOM     37  C   UNL d   1       9.394   1.404  13.192  0.00  0.00    -0.002 A 
ATOM     38  C   UNL d   1       9.199   2.065  13.918  0.00  0.00     0.017 A 
ATOM     39  C   UNL d   1       9.951   2.506  14.408  0.00  0.00     0.037 A 
ATOM     40  C   UNL d   1      10.897   2.287  14.172  0.00  0.00     0.065 A 
ATOM     41  C   UNL d   1      11.093   1.627  13.446  0.00  0.00     0.037 A 
ATOM     42  C   UNL d   1      10.340   1.186  12.957  0.00  0.00     0.017 A 
BRANCH  40  43
ATOM     43  O   UNL d   1      11.650   2.729  14.661  0.00  0.00    -0.361 OA
ATOM     44  H   UNL d   1      12.224   2.714  14.425  0.00  0.00     0.217 HD
ENDBRANCH  40  43
ENDBRANCH   9  37
BRANCH   7  45
ATOM     45  O   UNL d   1       6.055  -1.299  11.418  0.00  0.00    -0.360 OA
ATOM     46  H   UNL d   1       6.452  -1.768  11.338  0.00  0.00     0.217 HD
ENDBRANCH   7  45
TORSDOF 9
ENDMDL
MODEL 4
REMARK VINA RESULT:   -12.136     13.830     17.023
REMARK INTER + INTRA:          -7.874
REMARK INTER:                 -16.624
REMARK INTRA:                   8.750
REMARK UNBOUND:                 8.519
REMARK  9 active torsions:
REMARK  status: ('A' for Active; 'I' for Inactive)
REMARK    1  A    between atoms: O_3  and  C_17 
REMARK    2  A    between atoms: O_4  and  C_18 
REMARK    3  A    between atoms: O_5  and  C_19 
REMARK    4  A    between atoms: O_7  and  C_32 
REMARK    5  A    between atoms: O_9  and  C_36 
REMARK    6  A    between atoms: O_10  and  C_40 
REMARK    7  A    between atoms: C_11  and  C_13 
REMARK    8  A    between atoms: C_15  and  C_20 
REMARK    9  A    between atoms: C_22  and  C_29 
ROOT
ATOM      1  O   UNL d   1       8.365   4.822 -13.989  0.00  0.00    -0.308 OA
ATOM      2  O   UNL d   1       9.267   3.113 -16.373  0.00  0.00    -0.287 OA
ATOM      3  C   UNL d   1       8.304   3.357 -13.015  0.00  0.00     0.045 A 
ATOM      4  C   UNL d   1       8.486   3.792 -13.897  0.00  0.00     0.107 A 
ATOM      5  C   UNL d   1       8.780   3.238 -14.676  0.00  0.00     0.082 A 
ATOM      6  C   UNL d   1       8.416   2.369 -12.912  0.00  0.00     0.082 A 
ATOM      7  C   UNL d   1       8.892   2.249 -14.573  0.00  0.00     0.085 A 
ATOM      8  C   UNL d   1       8.710   1.815 -13.691  0.00  0.00     0.075 A 
ATOM      9  C   UNL d   1       8.553   5.282 -14.905  0.00  0.00     0.090 A 
ATOM     10  C   UNL d   1       8.974   3.676 -15.601  0.00  0.00     0.190 A 
ATOM     11  C   UNL d   1       8.860   4.705 -15.716  0.00  0.00     0.094 A 
ENDROOT
BRANCH   3  12
ATOM     12  C   UNL d   1       8.010   3.911 -12.236  0.00  0.00     0.014 A 
ATOM     13  C   UNL d   1       7.036   4.075 -12.079  0.00  0.00     0.029 A 
ATOM     14  C   UNL d   1       6.742   4.629 -11.300  0.00  0.00    -0.001 A 
ATOM     15  C   UNL d   1       7.421   5.018 -10.679  0.00  0.00     0.017 A 
ATOM     16  C   UNL d   1       8.395   4.854 -10.836  0.00  0.00     0.038 A 
ATOM     17  C   UNL d   1       8.689   4.300 -11.615  0.00  0.00     0.076 A 
BRANCH  14  18
ATOM     18  C   UNL d   1       5.768   4.793 -11.143  0.00  0.00     0.090 A 
ATOM     19  O   UNL d   1       5.102   4.070 -11.329  0.00  0.00    -0.309 OA
ATOM     20  C   UNL d   1       4.129   4.234 -11.172  0.00  0.00     0.095 A 
ATOM     21  C   UNL d   1       3.820   5.121 -10.828  0.00  0.00     0.081 A 
ATOM     22  C   UNL d   1       3.447   3.471 -11.371  0.00  0.00     0.075 A 
ATOM     23  C   UNL d   1       4.486   5.844 -10.641  0.00  0.00     0.190 A 
ATOM     24  C   UNL d   1       2.809   5.307 -10.659  0.00  0.00     0.085 A 
ATOM     25  O   UNL d   1       4.177   6.731 -10.297  0.00  0.00    -0.287 OA
ATOM     26  C   UNL d   1       5.459   5.680 -10.799  0.00  0.00     0.094 A 
ATOM     27  C   UNL d   1       2.110   4.559 -10.851  0.00  0.00     0.074 A 
ATOM     28  C   UNL d   1       2.431   3.635 -11.210  0.00  0.00     0.071 A 
BRANCH  24  29
ATOM     29  O   UNL d   1       2.512   6.197 -10.315  0.00  0.00    -0.360 OA
ATOM     30  H   UNL d   1       2.152   6.231  -9.810  0.00  0.00     0.217 HD
ENDBRANCH  24  29
BRANCH  28  31
ATOM     31  O   UNL d   1       1.768   2.910 -11.398  0.00  0.00    -0.361 OA
ATOM     32  H   UNL d   1       1.846   2.347 -11.149  0.00  0.00     0.217 HD
ENDBRANCH  28  31
ENDBRANCH  14  18
BRANCH  17  33
ATOM     33  O   UNL d   1       9.663   4.136 -11.772  0.00  0.00    -0.360 OA
ATOM     34  H   UNL d   1       9.858   3.939 -12.327  0.00  0.00     0.217 HD
ENDBRANCH  17  33
ENDBRANCH   3  12
BRANCH   6  35
ATOM     35  O   UNL d   1       8.233   1.934 -12.030  0.00  0.00    -0.360 OA
ATOM     36  H   UNL d   1       8.112   1.327 -12.003  0.00  0.00     0.217 HD
ENDBRANCH   6  35
BRANCH   9  37
ATOM     37  C   UNL d   1       8.440   6.271 -15.004  0.00  0.00    -0.002 A 
ATOM     38  C   UNL d   1       7.522   6.666 -15.053  0.00  0.00     0.017 A 
ATOM     39  C   UNL d   1       7.408   7.654 -15.152  0.00  0.00     0.037 A 
ATOM     40  C   UNL d   1       8.212   8.247 -15.201  0.00  0.00     0.065 A 
ATOM     41  C   UNL d   1       9.129   7.852 -15.152  0.00  0.00     0.037 A 
ATOM     42  C   UNL d   1       9.243   6.863 -15.053  0.00  0.00     0.017 A 
BRANCH  40  43
ATOM     43  O   UNL d   1       8.099   9.236 -15.300  0.00  0.00    -0.361 OA
ATOM     44  H   UNL d   1       8.321   9.526 -15.802  0.00  0.00     0.217 HD
ENDBRANCH  40  43
ENDBRANCH   9  37
BRANCH   7  45
ATOM     45  O   UNL d   1       9.186   1.696 -15.352  0.00  0.00    -0.360 OA
ATOM     46  H   UNL d   1       9.007   1.104 -15.397  0.00  0.00     0.217 HD
ENDBRANCH   7  45
TORSDOF 9
ENDMDL
MODEL 5
REMARK VINA RESULT:   -12.136     48.627     51.112
REMARK INTER + INTRA:          -7.873
REMARK INTER:                 -16.750
REMARK INTRA:                   8.877
REMARK UNBOUND:                 8.519
REMARK  9 active torsions:
REMARK  status: ('A' for Active; 'I' for Inactive)
REMARK    1  A    between atoms: O_3  and  C_17 
REMARK    2  A    between atoms: O_4  and  C_18 
REMARK    3  A    between atoms: O_5  and  C_19 
REMARK    4  A    between atoms: O_7  and  C_32 
REMARK    5  A    between atoms: O_9  and  C_36 
REMARK    6  A    between atoms: O_10  and  C_40 
REMARK    7  A    between atoms: C_11  and  C_13 
REMARK    8  A    between atoms: C_15  and  C_20 
REMARK    9  A    between atoms: C_22  and  C_29 
ROOT
ATOM      1  O   UNL d   1     -28.700 -10.522  16.279  0.00  0.00    -0.308 OA
ATOM      2  O   UNL d   1     -30.755 -11.547  14.243  0.00  0.00    -0.287 OA
ATOM      3  C   UNL d   1     -28.326 -12.195  16.680  0.00  0.00     0.045 A 
ATOM      4  C   UNL d   1     -28.857 -11.543  16.139  0.00  0.00     0.107 A 
ATOM      5  C   UNL d   1     -29.528 -11.873  15.474  0.00  0.00     0.082 A 
ATOM      6  C   UNL d   1     -28.466 -13.178  16.556  0.00  0.00     0.082 A 
ATOM      7  C   UNL d   1     -29.667 -12.855  15.351  0.00  0.00     0.085 A 
ATOM      8  C   UNL d   1     -29.136 -13.508  15.892  0.00  0.00     0.075 A 
ATOM      9  C   UNL d   1     -29.250  -9.837  15.719  0.00  0.00     0.090 A 
ATOM     10  C   UNL d   1     -30.088 -11.205  14.904  0.00  0.00     0.190 A 
ATOM     11  C   UNL d   1     -29.948 -10.181  15.027  0.00  0.00     0.094 A 
ENDROOT
BRANCH   3  12
ATOM     12  C   UNL d   1     -27.656 -11.865  17.344  0.00  0.00     0.014 A 
ATOM     13  C   UNL d   1     -27.924 -11.725  18.298  0.00  0.00     0.029 A 
ATOM     14  C   UNL d   1     -27.253 -11.395  18.962  0.00  0.00    -0.001 A 
ATOM     15  C   UNL d   1     -26.315 -11.205  18.673  0.00  0.00     0.017 A 
ATOM     16  C   UNL d   1     -26.047 -11.345  17.720  0.00  0.00     0.038 A 
ATOM     17  C   UNL d   1     -26.717 -11.675  17.056  0.00  0.00     0.076 A 
BRANCH  14  18
ATOM     18  C   UNL d   1     -27.521 -11.255  19.915  0.00  0.00     0.090 A 
ATOM     19  O   UNL d   1     -28.464 -11.006  20.138  0.00  0.00    -0.309 OA
ATOM     20  C   UNL d   1     -28.731 -10.866  21.092  0.00  0.00     0.095 A 
ATOM     21  C   UNL d   1     -28.057 -10.975  21.822  0.00  0.00     0.081 A 
ATOM     22  C   UNL d   1     -29.717 -10.607  21.309  0.00  0.00     0.075 A 
ATOM     23  C   UNL d   1     -27.115 -11.224  21.599  0.00  0.00     0.190 A 
ATOM     24  C   UNL d   1     -28.321 -10.833  22.819  0.00  0.00     0.085 A 
ATOM     25  O   UNL d   1     -26.440 -11.334  22.329  0.00  0.00    -0.287 OA
ATOM     26  C   UNL d   1     -26.847 -11.364  20.645  0.00  0.00     0.094 A 
ATOM     27  C   UNL d   1     -29.301 -10.573  23.059  0.00  0.00     0.074 A 
ATOM     28  C   UNL d   1     -30.004 -10.459  22.299  0.00  0.00     0.071 A 
BRANCH  24  29
ATOM     29  O   UNL d   1     -27.639 -10.945  23.541  0.00  0.00    -0.360 OA
ATOM     30  H   UNL d   1     -27.395 -10.445  23.818  0.00  0.00     0.217 HD
ENDBRANCH  24  29
BRANCH  28  31
ATOM     31  O   UNL d   1     -30.947 -10.210  22.518  0.00  0.00    -0.361 OA
ATOM     32  H   UNL d   1     -31.295  -9.914  22.099  0.00  0.00     0.217 HD
ENDBRANCH  28  31
ENDBRANCH  14  18
BRANCH  17  33
ATOM     33  O   UNL d   1     -26.450 -11.815  16.102  0.00  0.00    -0.360 OA
ATOM     34  H   UNL d   1     -25.965 -12.177  15.966  0.00  0.00     0.217 HD
ENDBRANCH  17  33
ENDBRANCH   3  12
BRANCH   6  35
ATOM     35  O   UNL d   1     -27.935 -13.830  17.097  0.00  0.00    -0.360 OA
ATOM     36  H   UNL d   1     -27.316 -13.794  17.107  0.00  0.00     0.217 HD
ENDBRANCH   6  35
BRANCH   9  37
ATOM     37  C   UNL d   1     -29.107  -8.855  15.846  0.00  0.00    -0.002 A 
ATOM     38  C   UNL d   1     -28.820  -8.288  15.074  0.00  0.00     0.017 A 
ATOM     39  C   UNL d   1     -28.677  -7.307  15.199  0.00  0.00     0.037 A 
ATOM     40  C   UNL d   1     -28.821  -6.892  16.098  0.00  0.00     0.065 A 
ATOM     41  C   UNL d   1     -29.108  -7.459  16.870  0.00  0.00     0.037 A 
ATOM     42  C   UNL d   1     -29.251  -8.441  16.744  0.00  0.00     0.017 A 
BRANCH  40  43
ATOM     43  O   UNL d   1     -28.679  -5.910  16.225  0.00  0.00    -0.361 OA
ATOM     44  H   UNL d   1     -29.017  -5.503  15.901  0.00  0.00     0.217 HD
ENDBRANCH  40  43
ENDBRANCH   9  37
BRANCH   7  45
ATOM     45  O   UNL d   1     -30.338 -13.185  14.686  0.00  0.00    -0.360 OA
ATOM     46  H   UNL d   1     -30.157 -13.552  14.220  0.00  0.00     0.217 HD
ENDBRANCH   7  45
TORSDOF 9
ENDMDL
