MODEL 1
REMARK VINA RESULT:    -8.293      0.000      0.000
REMARK INTER + INTRA:          -8.196
REMARK INTER:                  -9.203
REMARK INTRA:                   1.006
REMARK UNBOUND:                 1.066
REMARK  3 active torsions:
REMARK  status: ('A' for Active; 'I' for Inactive)
REMARK    1  A    between atoms: O_2  and  C_10 
REMARK    2  A    between atoms: O_4  and  C_13 
REMARK    3  A    between atoms: C_7  and  C_9 
ROOT
ATOM      1  O   UNL d   1      19.482  -7.041  21.980  0.00  0.00    -0.309 OA
ATOM      2  O   UNL d   1      17.452  -9.088  22.808  0.00  0.00    -0.287 OA
ATOM      3  C   UNL d   1      19.073  -8.480  22.852  0.00  0.00     0.081 A 
ATOM      4  C   UNL d   1      19.750  -7.798  22.576  0.00  0.00     0.095 A 
ATOM      5  C   UNL d   1      18.538  -6.966  21.660  0.00  0.00     0.090 A 
ATOM      6  C   UNL d   1      18.129  -8.405  22.532  0.00  0.00     0.190 A 
ATOM      7  C   UNL d   1      19.338  -9.274  23.471  0.00  0.00     0.085 A 
ATOM      8  C   UNL d   1      17.861  -7.648  21.936  0.00  0.00     0.094 A 
ATOM      9  C   UNL d   1      20.738  -7.862  22.900  0.00  0.00     0.075 A 
ATOM     10  C   UNL d   1      21.024  -8.648  23.521  0.00  0.00     0.071 A 
ATOM     11  C   UNL d   1      20.320  -9.359  23.808  0.00  0.00     0.074 A 
ENDROOT
BRANCH   5  12
ATOM     12  C   UNL d   1      18.270  -6.208  21.065  0.00  0.00    -0.002 A 
ATOM     13  C   UNL d   1      17.833  -5.397  21.453  0.00  0.00     0.014 A 
ATOM     14  C   UNL d   1      17.565  -4.640  20.858  0.00  0.00     0.001 A 
ATOM     15  C   UNL d   1      17.734  -4.694  19.874  0.00  0.00     0.000 A 
ATOM     16  C   UNL d   1      18.172  -5.505  19.485  0.00  0.00     0.001 A 
ATOM     17  C   UNL d   1      18.439  -6.262  20.081  0.00  0.00     0.014 A 
ENDBRANCH   5  12
BRANCH   7  18
ATOM     18  O   UNL d   1      18.652  -9.951  23.741  0.00  0.00    -0.360 OA
ATOM     19  H   UNL d   1      18.687 -10.222  24.297  0.00  0.00     0.217 HD
ENDBRANCH   7  18
BRANCH  10  20
ATOM     20  O   UNL d   1      21.970  -8.720  23.838  0.00  0.00    -0.361 OA
ATOM     21  H   UNL d   1      22.154  -9.222  24.152  0.00  0.00     0.217 HD
ENDBRANCH  10  20
TORSDOF 3
ENDMDL
MODEL 2
REMARK VINA RESULT:    -8.251      1.284      2.470
REMARK INTER + INTRA:          -8.150
REMARK INTER:                  -9.165
REMARK INTRA:                   1.015
REMARK UNBOUND:                 1.066
REMARK  3 active torsions:
REMARK  status: ('A' for Active; 'I' for Inactive)
REMARK    1  A    between atoms: O_2  and  C_10 
REMARK    2  A    between atoms: O_4  and  C_13 
REMARK    3  A    between atoms: C_7  and  C_9 
ROOT
ATOM      1  O   UNL d   1      17.334  -7.956  21.563  0.00  0.00    -0.309 OA
ATOM      2  O   UNL d   1      19.546  -8.216  23.573  0.00  0.00    -0.287 OA
ATOM      3  C   UNL d   1      18.157  -8.877  22.778  0.00  0.00     0.081 A 
ATOM      4  C   UNL d   1      17.419  -8.790  22.108  0.00  0.00     0.095 A 
ATOM      5  C   UNL d   1      17.987  -7.208  21.689  0.00  0.00     0.090 A 
ATOM      6  C   UNL d   1      18.809  -8.129  22.903  0.00  0.00     0.190 A 
ATOM      7  C   UNL d   1      18.258  -9.740  23.352  0.00  0.00     0.085 A 
ATOM      8  C   UNL d   1      18.724  -7.295  22.358  0.00  0.00     0.094 A 
ATOM      9  C   UNL d   1      16.732  -9.560  21.966  0.00  0.00     0.075 A 
ATOM     10  C   UNL d   1      16.814 -10.432  22.529  0.00  0.00     0.071 A 
ATOM     11  C   UNL d   1      17.582 -10.523  23.227  0.00  0.00     0.074 A 
ENDROOT
BRANCH   5  12
ATOM     12  C   UNL d   1      17.901  -6.374  21.144  0.00  0.00    -0.002 A 
ATOM     13  C   UNL d   1      17.497  -5.553  21.547  0.00  0.00     0.014 A 
ATOM     14  C   UNL d   1      17.412  -4.718  21.003  0.00  0.00     0.001 A 
ATOM     15  C   UNL d   1      17.731  -4.705  20.055  0.00  0.00     0.000 A 
ATOM     16  C   UNL d   1      18.136  -5.526  19.652  0.00  0.00     0.001 A 
ATOM     17  C   UNL d   1      18.221  -6.360  20.197  0.00  0.00     0.014 A 
ENDBRANCH   5  12
BRANCH   7  18
ATOM     18  O   UNL d   1      18.999  -9.816  24.019  0.00  0.00    -0.360 OA
ATOM     19  H   UNL d   1      19.117 -10.360  24.290  0.00  0.00     0.217 HD
ENDBRANCH   7  18
BRANCH  10  20
ATOM     20  O   UNL d   1      16.160 -11.177  22.401  0.00  0.00    -0.361 OA
ATOM     21  H   UNL d   1      15.597 -11.143  22.659  0.00  0.00     0.217 HD
ENDBRANCH  10  20
TORSDOF 3
ENDMDL
MODEL 3
REMARK VINA RESULT:    -7.984      2.019      3.999
REMARK INTER + INTRA:          -7.852
REMARK INTER:                  -8.925
REMARK INTRA:                   1.073
REMARK UNBOUND:                 1.066
REMARK  3 active torsions:
REMARK  status: ('A' for Active; 'I' for Inactive)
REMARK    1  A    between atoms: O_2  and  C_10 
REMARK    2  A    between atoms: O_4  and  C_13 
REMARK    3  A    between atoms: C_7  and  C_9 
ROOT
ATOM      1  O   UNL d   1      18.542  -9.239  22.822  0.00  0.00    -0.309 OA
ATOM      2  O   UNL d   1      17.196  -6.746  21.836  0.00  0.00    -0.287 OA
ATOM      3  C   UNL d   1      18.618  -7.563  22.393  0.00  0.00     0.081 A 
ATOM      4  C   UNL d   1      19.067  -8.394  22.721  0.00  0.00     0.095 A 
ATOM      5  C   UNL d   1      17.569  -9.253  22.594  0.00  0.00     0.090 A 
ATOM      6  C   UNL d   1      17.645  -7.577  22.165  0.00  0.00     0.190 A 
ATOM      7  C   UNL d   1      19.152  -6.675  22.283  0.00  0.00     0.085 A 
ATOM      8  C   UNL d   1      17.120  -8.422  22.266  0.00  0.00     0.094 A 
ATOM      9  C   UNL d   1      20.080  -8.395  22.963  0.00  0.00     0.075 A 
ATOM     10  C   UNL d   1      20.634  -7.518  22.860  0.00  0.00     0.071 A 
ATOM     11  C   UNL d   1      20.167  -6.653  22.518  0.00  0.00     0.074 A 
ENDROOT
BRANCH   5  12
ATOM     12  C   UNL d   1      17.044 -10.098  22.695  0.00  0.00    -0.002 A 
ATOM     13  C   UNL d   1      16.907 -10.497  23.602  0.00  0.00     0.014 A 
ATOM     14  C   UNL d   1      16.382 -11.342  23.703  0.00  0.00     0.001 A 
ATOM     15  C   UNL d   1      15.994 -11.789  22.897  0.00  0.00     0.000 A 
ATOM     16  C   UNL d   1      16.131 -11.390  21.990  0.00  0.00     0.001 A 
ATOM     17  C   UNL d   1      16.656 -10.545  21.889  0.00  0.00     0.014 A 
ENDBRANCH   5  12
BRANCH   7  18
ATOM     18  O   UNL d   1      18.693  -5.850  21.953  0.00  0.00    -0.360 OA
ATOM     19  H   UNL d   1      18.215  -5.897  21.562  0.00  0.00     0.217 HD
ENDBRANCH   7  18
BRANCH  10  20
ATOM     20  O   UNL d   1      21.607  -7.508  23.089  0.00  0.00    -0.361 OA
ATOM     21  H   UNL d   1      21.876  -8.016  23.322  0.00  0.00     0.217 HD
ENDBRANCH  10  20
TORSDOF 3
ENDMDL
MODEL 4
REMARK VINA RESULT:    -7.923      2.363      4.710
REMARK INTER + INTRA:          -7.783
REMARK INTER:                  -8.849
REMARK INTRA:                   1.066
REMARK UNBOUND:                 1.066
REMARK  3 active torsions:
REMARK  status: ('A' for Active; 'I' for Inactive)
REMARK    1  A    between atoms: O_2  and  C_10 
REMARK    2  A    between atoms: O_4  and  C_13 
REMARK    3  A    between atoms: C_7  and  C_9 
ROOT
ATOM      1  O   UNL d   1      16.920  -8.952  22.041  0.00  0.00    -0.309 OA
ATOM      2  O   UNL d   1      19.446  -8.843  23.657  0.00  0.00    -0.287 OA
ATOM      3  C   UNL d   1      18.280  -8.062  22.642  0.00  0.00     0.081 A 
ATOM      4  C   UNL d   1      17.438  -8.099  22.103  0.00  0.00     0.095 A 
ATOM      5  C   UNL d   1      17.245  -9.769  22.518  0.00  0.00     0.090 A 
ATOM      6  C   UNL d   1      18.604  -8.880  23.119  0.00  0.00     0.190 A 
ATOM      7  C   UNL d   1      18.829  -7.181  22.716  0.00  0.00     0.085 A 
ATOM      8  C   UNL d   1      18.086  -9.733  23.056  0.00  0.00     0.094 A 
ATOM      9  C   UNL d   1      17.087  -7.256  21.601  0.00  0.00     0.075 A 
ATOM     10  C   UNL d   1      17.621  -6.363  21.662  0.00  0.00     0.071 A 
ATOM     11  C   UNL d   1      18.498  -6.326  22.222  0.00  0.00     0.074 A 
ENDROOT
BRANCH   5  12
ATOM     12  C   UNL d   1      16.727 -10.622  22.456  0.00  0.00    -0.002 A 
ATOM     13  C   UNL d   1      16.643 -11.094  21.578  0.00  0.00     0.014 A 
ATOM     14  C   UNL d   1      16.126 -11.947  21.516  0.00  0.00     0.001 A 
ATOM     15  C   UNL d   1      15.692 -12.329  22.331  0.00  0.00     0.000 A 
ATOM     16  C   UNL d   1      15.775 -11.858  23.209  0.00  0.00     0.001 A 
ATOM     17  C   UNL d   1      16.293 -11.004  23.272  0.00  0.00     0.014 A 
ENDBRANCH   5  12
BRANCH   7  18
ATOM     18  O   UNL d   1      19.669  -7.156  23.257  0.00  0.00    -0.360 OA
ATOM     19  H   UNL d   1      20.135  -7.544  23.125  0.00  0.00     0.217 HD
ENDBRANCH   7  18
BRANCH  10  20
ATOM     20  O   UNL d   1      17.293  -5.548  21.183  0.00  0.00    -0.361 OA
ATOM     21  H   UNL d   1      17.069  -5.069  21.506  0.00  0.00     0.217 HD
ENDBRANCH  10  20
TORSDOF 3
ENDMDL
MODEL 5
REMARK VINA RESULT:    -7.805      2.446      3.753
REMARK INTER + INTRA:          -7.651
REMARK INTER:                  -8.698
REMARK INTRA:                   1.047
REMARK UNBOUND:                 1.066
REMARK  3 active torsions:
REMARK  status: ('A' for Active; 'I' for Inactive)
REMARK    1  A    between atoms: O_2  and  C_10 
REMARK    2  A    between atoms: O_4  and  C_13 
REMARK    3  A    between atoms: C_7  and  C_9 
ROOT
ATOM      1  O   UNL d   1      16.973  -9.526  21.952  0.00  0.00    -0.309 OA
ATOM      2  O   UNL d   1      17.356  -9.909  24.902  0.00  0.00    -0.287 OA
ATOM      3  C   UNL d   1      16.797 -10.500  23.373  0.00  0.00     0.081 A 
ATOM      4  C   UNL d   1      16.669 -10.372  22.390  0.00  0.00     0.095 A 
ATOM      5  C   UNL d   1      17.405  -8.808  22.497  0.00  0.00     0.090 A 
ATOM      6  C   UNL d   1      17.229  -9.781  23.919  0.00  0.00     0.190 A 
ATOM      7  C   UNL d   1      16.485 -11.375  23.843  0.00  0.00     0.085 A 
ATOM      8  C   UNL d   1      17.533  -8.936  23.481  0.00  0.00     0.094 A 
ATOM      9  C   UNL d   1      16.221 -11.111  21.808  0.00  0.00     0.075 A 
ATOM     10  C   UNL d   1      15.901 -11.994  22.257  0.00  0.00     0.071 A 
ATOM     11  C   UNL d   1      16.034 -12.128  23.281  0.00  0.00     0.074 A 
ENDROOT
BRANCH   5  12
ATOM     12  C   UNL d   1      17.710  -7.962  22.059  0.00  0.00    -0.002 A 
ATOM     13  C   UNL d   1      17.037  -7.310  21.710  0.00  0.00     0.014 A 
ATOM     14  C   UNL d   1      17.341  -6.464  21.272  0.00  0.00     0.001 A 
ATOM     15  C   UNL d   1      18.318  -6.270  21.184  0.00  0.00     0.000 A 
ATOM     16  C   UNL d   1      18.991  -6.922  21.533  0.00  0.00     0.001 A 
ATOM     17  C   UNL d   1      18.687  -7.768  21.971  0.00  0.00     0.014 A 
ENDBRANCH   5  12
BRANCH   7  18
ATOM     18  O   UNL d   1      16.618 -11.492  24.827  0.00  0.00    -0.360 OA
ATOM     19  H   UNL d   1      16.153 -11.371  25.219  0.00  0.00     0.217 HD
ENDBRANCH   7  18
BRANCH  10  20
ATOM     20  O   UNL d   1      15.470 -12.710  21.708  0.00  0.00    -0.361 OA
ATOM     21  H   UNL d   1      15.290 -12.589  21.127  0.00  0.00     0.217 HD
ENDBRANCH  10  20
TORSDOF 3
ENDMDL
