MODEL 1
REMARK VINA RESULT:   -11.409      0.000      0.000
REMARK INTER + INTRA:         -12.770
REMARK INTER:                 -14.084
REMARK INTRA:                   1.314
REMARK UNBOUND:                 1.308
REMARK  6 active torsions:
REMARK  status: ('A' for Active; 'I' for Inactive)
REMARK    1  A    between atoms: C_22  and  O_1 
REMARK    2  A    between atoms: C_24  and  O_2 
REMARK    3  A    between atoms: O_3  and  C_30 
REMARK    4  A    between atoms: O_4  and  C_33 
REMARK    5  A    between atoms: C_14  and  C_30 
REMARK    6  A    between atoms: C_19  and  C_33 
ROOT
ATOM      1  C   UNL d   1      18.049 -19.738  24.100  0.00  0.00    -0.028 A 
ATOM      2  C   UNL d   1      18.651 -19.448  23.356  0.00  0.00     0.007 A 
ATOM      3  C   UNL d   1      18.260 -19.097  22.457  0.00  0.00    -0.033 A 
ATOM      4  C   UNL d   1      18.439 -20.073  24.958  0.00  0.00    -0.013 A 
ATOM      5  C   UNL d   1      17.227 -19.048  22.331  0.00  0.00     0.007 A 
ATOM      6  C   UNL d   1      17.014 -19.697  23.996  0.00  0.00     0.011 A 
ATOM      7  C   UNL d   1      19.432 -20.118  25.072  0.00  0.00    -0.069 A 
ATOM      8  C   UNL d   1      16.600 -19.350  23.106  0.00  0.00     0.007 A 
ATOM      9  C   UNL d   1      16.796 -18.685  21.403  0.00  0.00     0.010 A 
ATOM     10  C   UNL d   1      19.853 -20.464  25.959  0.00  0.00     0.038 A 
ATOM     11  C   UNL d   1      19.644 -19.493  23.470  0.00  0.00     0.033 A 
ATOM     12  C   UNL d   1      18.933 -18.788  21.664  0.00  0.00     0.044 A 
ATOM     13  C   UNL d   1      17.799 -20.371  25.723  0.00  0.00     0.016 A 
ATOM     14  C   UNL d   1      19.232 -20.768  26.738  0.00  0.00     0.053 A 
ATOM     15  C   UNL d   1      17.210 -19.936  24.607  0.00  0.00     0.016 C 
ATOM     16  C   UNL d   1      18.198 -20.721  26.620  0.00  0.00     0.022 A 
ATOM     17  C   UNL d   1      17.449 -18.371  20.596  0.00  0.00     0.157 A 
ATOM     18  C   UNL d   1      20.034 -19.828  24.328  0.00  0.00    -0.022 A 
ATOM     19  C   UNL d   1      18.525 -18.423  20.727  0.00  0.00     0.148 A 
ATOM     20  C   UNL d   1      19.251 -19.145  22.578  0.00  0.00     0.016 C 
ATOM     21  C   UNL d   1      17.464 -20.154  25.167  0.00  0.00     0.021 C 
ATOM     22  C   UNL d   1      20.932 -20.504  26.060  0.00  0.00    -0.005 A 
ATOM     23  C   UNL d   1      19.647 -21.132  27.672  0.00  0.00     0.021 A 
ATOM     24  C   UNL d   1      21.371 -20.864  26.984  0.00  0.00    -0.014 A 
ATOM     25  C   UNL d   1      15.877 -18.828  21.770  0.00  0.00     0.020 C 
ATOM     26  C   UNL d   1      20.724 -21.181  27.796  0.00  0.00     0.006 A 
ATOM     27  C   UNL d   1      21.520 -20.209  25.305  0.00  0.00     0.011 C 
ATOM     28  C   UNL d   1      22.365 -20.905  27.087  0.00  0.00     0.010 C 
ENDROOT
BRANCH   9  29
ATOM     29  C   UNL d   1      15.995 -18.468  20.845  0.00  0.00     0.176 C 
BRANCH  29  30
ATOM     30  O   UNL d   1      15.092 -18.802  21.114  0.00  0.00    -0.400 OA
ATOM     31  H   UNL d   1      15.039 -19.337  21.422  0.00  0.00     0.209 HD
ENDBRANCH  29  30
ENDBRANCH   9  29
BRANCH  17  32
ATOM     32  O   UNL d   1      17.063 -18.036  19.737  0.00  0.00    -0.392 OA
ATOM     33  H   UNL d   1      16.519 -18.255  19.535  0.00  0.00     0.210 HD
ENDBRANCH  17  32
BRANCH  19  34
ATOM     34  O   UNL d   1      19.136 -18.135  19.990  0.00  0.00    -0.393 OA
ATOM     35  H   UNL d   1      18.917 -17.798  19.519  0.00  0.00     0.210 HD
ENDBRANCH  19  34
BRANCH  14  36
ATOM     36  C   UNL d   1      18.636 -21.059  27.487  0.00  0.00     0.149 C 
ATOM     37  O   UNL d   1      18.383 -20.411  28.205  0.00  0.00    -0.649 OA
BRANCH  36  38
ATOM     38  O   UNL d   1      18.294 -21.998  27.517  0.00  0.00    -0.776 OA
ATOM     39  H   UNL d   1      17.693 -22.105  27.626  0.00  0.00     0.167 HD
ENDBRANCH  36  38
ENDBRANCH  14  36
TORSDOF 6
ENDMDL
MODEL 2
REMARK VINA RESULT:   -11.218     24.564     26.264
REMARK INTER + INTRA:         -12.533
REMARK INTER:                 -13.943
REMARK INTRA:                   1.409
REMARK UNBOUND:                 1.308
REMARK  6 active torsions:
REMARK  status: ('A' for Active; 'I' for Inactive)
REMARK    1  A    between atoms: C_22  and  O_1 
REMARK    2  A    between atoms: C_24  and  O_2 
REMARK    3  A    between atoms: O_3  and  C_30 
REMARK    4  A    between atoms: O_4  and  C_33 
REMARK    5  A    between atoms: C_14  and  C_30 
REMARK    6  A    between atoms: C_19  and  C_33 
ROOT
ATOM      1  C   UNL d   1      -2.145 -35.585  21.511  0.00  0.00    -0.028 A 
ATOM      2  C   UNL d   1      -1.661 -34.823  21.081  0.00  0.00     0.007 A 
ATOM      3  C   UNL d   1      -1.900 -33.837  21.317  0.00  0.00    -0.033 A 
ATOM      4  C   UNL d   1      -1.905 -36.527  21.275  0.00  0.00    -0.013 A 
ATOM      5  C   UNL d   1      -2.652 -33.643  22.010  0.00  0.00     0.007 A 
ATOM      6  C   UNL d   1      -2.900 -35.415  22.207  0.00  0.00     0.011 A 
ATOM      7  C   UNL d   1      -1.181 -36.706  20.608  0.00  0.00    -0.069 A 
ATOM      8  C   UNL d   1      -3.156 -34.437  22.458  0.00  0.00     0.007 A 
ATOM      9  C   UNL d   1      -2.919 -32.623  22.271  0.00  0.00     0.010 A 
ATOM     10  C   UNL d   1      -0.920 -37.682  20.352  0.00  0.00     0.038 A 
ATOM     11  C   UNL d   1      -0.938 -35.002  20.414  0.00  0.00     0.033 A 
ATOM     12  C   UNL d   1      -1.362 -33.026  20.837  0.00  0.00     0.044 A 
ATOM     13  C   UNL d   1      -2.417 -37.310  21.732  0.00  0.00     0.016 A 
ATOM     14  C   UNL d   1      -1.419 -38.481  20.796  0.00  0.00     0.053 A 
ATOM     15  C   UNL d   1      -2.789 -36.081  22.094  0.00  0.00     0.016 C 
ATOM     16  C   UNL d   1      -2.173 -38.294  21.490  0.00  0.00     0.022 A 
ATOM     17  C   UNL d   1      -2.395 -31.797  21.805  0.00  0.00     0.157 A 
ATOM     18  C   UNL d   1      -0.698 -35.944  20.178  0.00  0.00    -0.022 A 
ATOM     19  C   UNL d   1      -1.611 -31.999  21.083  0.00  0.00     0.148 A 
ATOM     20  C   UNL d   1      -1.178 -34.024  20.651  0.00  0.00     0.016 C 
ATOM     21  C   UNL d   1      -2.633 -36.695  21.940  0.00  0.00     0.021 C 
ATOM     22  C   UNL d   1      -0.132 -37.851  19.627  0.00  0.00    -0.005 A 
ATOM     23  C   UNL d   1      -1.164 -39.505  20.545  0.00  0.00     0.021 A 
ATOM     24  C   UNL d   1       0.141 -38.867  19.360  0.00  0.00    -0.014 A 
ATOM     25  C   UNL d   1      -3.615 -32.964  22.904  0.00  0.00     0.020 C 
ATOM     26  C   UNL d   1      -0.379 -39.700  19.822  0.00  0.00     0.006 A 
ATOM     27  C   UNL d   1       0.342 -37.076  19.206  0.00  0.00     0.011 C 
ATOM     28  C   UNL d   1       0.866 -39.034  18.692  0.00  0.00     0.010 C 
ENDROOT
BRANCH   9  29
ATOM     29  C   UNL d   1      -3.477 -31.980  22.794  0.00  0.00     0.176 C 
BRANCH  29  30
ATOM     30  O   UNL d   1      -4.474 -32.049  22.772  0.00  0.00    -0.400 OA
ATOM     31  H   UNL d   1      -4.803 -31.958  23.290  0.00  0.00     0.209 HD
ENDBRANCH  29  30
ENDBRANCH   9  29
BRANCH  17  32
ATOM     32  O   UNL d   1      -2.632 -30.854  22.038  0.00  0.00    -0.392 OA
ATOM     33  H   UNL d   1      -2.282 -30.385  21.832  0.00  0.00     0.210 HD
ENDBRANCH  17  32
BRANCH  19  34
ATOM     34  O   UNL d   1      -1.121 -31.244  20.647  0.00  0.00    -0.393 OA
ATOM     35  H   UNL d   1      -0.872 -31.320  20.084  0.00  0.00     0.210 HD
ENDBRANCH  19  34
BRANCH  14  36
ATOM     36  C   UNL d   1      -1.898 -39.248  21.222  0.00  0.00     0.149 C 
ATOM     37  O   UNL d   1      -2.736 -39.605  20.809  0.00  0.00    -0.649 OA
BRANCH  36  38
ATOM     38  O   UNL d   1      -1.540 -39.659  22.060  0.00  0.00    -0.776 OA
ATOM     39  H   UNL d   1      -1.834 -40.138  22.320  0.00  0.00     0.167 HD
ENDBRANCH  36  38
ENDBRANCH  14  36
TORSDOF 6
ENDMDL
MODEL 3
REMARK VINA RESULT:   -11.042     32.600     34.681
REMARK INTER + INTRA:         -12.317
REMARK INTER:                 -13.707
REMARK INTRA:                   1.390
REMARK UNBOUND:                 1.308
REMARK  6 active torsions:
REMARK  status: ('A' for Active; 'I' for Inactive)
REMARK    1  A    between atoms: C_22  and  O_1 
REMARK    2  A    between atoms: C_24  and  O_2 
REMARK    3  A    between atoms: O_3  and  C_30 
REMARK    4  A    between atoms: O_4  and  C_33 
REMARK    5  A    between atoms: C_14  and  C_30 
REMARK    6  A    between atoms: C_19  and  C_33 
ROOT
ATOM      1  C   UNL d   1     -14.360 -30.206  27.269  0.00  0.00    -0.028 A 
ATOM      2  C   UNL d   1     -15.148 -29.637  27.504  0.00  0.00     0.007 A 
ATOM      3  C   UNL d   1     -16.110 -30.037  27.523  0.00  0.00    -0.033 A 
ATOM      4  C   UNL d   1     -13.443 -29.808  27.255  0.00  0.00    -0.013 A 
ATOM      5  C   UNL d   1     -16.252 -31.043  27.295  0.00  0.00     0.007 A 
ATOM      6  C   UNL d   1     -14.479 -31.214  27.038  0.00  0.00     0.011 A 
ATOM      7  C   UNL d   1     -13.314 -28.841  27.475  0.00  0.00    -0.069 A 
ATOM      8  C   UNL d   1     -15.431 -31.636  27.051  0.00  0.00     0.007 A 
ATOM      9  C   UNL d   1     -17.245 -31.482  27.309  0.00  0.00     0.010 A 
ATOM     10  C   UNL d   1     -12.365 -28.412  27.465  0.00  0.00     0.038 A 
ATOM     11  C   UNL d   1     -15.019 -28.670  27.725  0.00  0.00     0.033 A 
ATOM     12  C   UNL d   1     -16.950 -29.401  27.781  0.00  0.00     0.044 A 
ATOM     13  C   UNL d   1     -12.632 -30.413  27.009  0.00  0.00     0.016 A 
ATOM     14  C   UNL d   1     -11.539 -28.998  27.221  0.00  0.00     0.053 A 
ATOM     15  C   UNL d   1     -13.826 -31.010  27.008  0.00  0.00     0.016 C 
ATOM     16  C   UNL d   1     -11.673 -30.005  26.992  0.00  0.00     0.022 A 
ATOM     17  C   UNL d   1     -18.099 -30.866  27.563  0.00  0.00     0.157 A 
ATOM     18  C   UNL d   1     -14.102 -28.272  27.710  0.00  0.00    -0.022 A 
ATOM     19  C   UNL d   1     -17.951 -29.818  27.801  0.00  0.00     0.148 A 
ATOM     20  C   UNL d   1     -15.973 -29.071  27.743  0.00  0.00     0.016 C 
ATOM     21  C   UNL d   1     -13.227 -30.750  26.999  0.00  0.00     0.021 C 
ATOM     22  C   UNL d   1     -12.249 -27.361  27.707  0.00  0.00    -0.005 A 
ATOM     23  C   UNL d   1     -10.540 -28.574  27.203  0.00  0.00     0.021 A 
ATOM     24  C   UNL d   1     -11.261 -26.914  27.696  0.00  0.00    -0.014 A 
ATOM     25  C   UNL d   1     -16.860 -32.368  27.046  0.00  0.00     0.020 C 
ATOM     26  C   UNL d   1     -10.400 -27.525  27.442  0.00  0.00     0.006 A 
ATOM     27  C   UNL d   1     -13.050 -26.807  27.940  0.00  0.00     0.011 C 
ATOM     28  C   UNL d   1     -11.144 -25.946  27.918  0.00  0.00     0.010 C 
ENDROOT
BRANCH   9  29
ATOM     29  C   UNL d   1     -17.845 -32.273  27.189  0.00  0.00     0.176 C 
BRANCH  29  30
ATOM     30  O   UNL d   1     -17.779 -32.831  26.362  0.00  0.00    -0.400 OA
ATOM     31  H   UNL d   1     -17.402 -32.658  25.901  0.00  0.00     0.209 HD
ENDBRANCH  29  30
ENDBRANCH   9  29
BRANCH  17  32
ATOM     32  O   UNL d   1     -19.018 -31.260  27.579  0.00  0.00    -0.392 OA
ATOM     33  H   UNL d   1     -19.510 -30.905  27.451  0.00  0.00     0.210 HD
ENDBRANCH  17  32
BRANCH  19  34
ATOM     34  O   UNL d   1     -18.732 -29.240  28.037  0.00  0.00    -0.393 OA
ATOM     35  H   UNL d   1     -19.309 -29.436  27.924  0.00  0.00     0.210 HD
ENDBRANCH  19  34
BRANCH  14  36
ATOM     36  C   UNL d   1     -10.746 -29.560  26.987  0.00  0.00     0.149 C 
ATOM     37  O   UNL d   1     -10.489 -29.687  26.029  0.00  0.00    -0.649 OA
BRANCH  36  38
ATOM     38  O   UNL d   1     -10.210 -29.995  27.711  0.00  0.00    -0.776 OA
ATOM     39  H   UNL d   1     -10.354 -30.567  27.901  0.00  0.00     0.167 HD
ENDBRANCH  36  38
ENDBRANCH  14  36
TORSDOF 6
ENDMDL
MODEL 4
REMARK VINA RESULT:   -11.032      1.051      5.778
REMARK INTER + INTRA:         -12.304
REMARK INTER:                 -13.646
REMARK INTRA:                   1.341
REMARK UNBOUND:                 1.308
REMARK  6 active torsions:
REMARK  status: ('A' for Active; 'I' for Inactive)
REMARK    1  A    between atoms: C_22  and  O_1 
REMARK    2  A    between atoms: C_24  and  O_2 
REMARK    3  A    between atoms: O_3  and  C_30 
REMARK    4  A    between atoms: O_4  and  C_33 
REMARK    5  A    between atoms: C_14  and  C_30 
REMARK    6  A    between atoms: C_19  and  C_33 
ROOT
ATOM      1  C   UNL d   1      18.495 -20.058  24.946  0.00  0.00    -0.028 A 
ATOM      2  C   UNL d   1      19.481 -20.070  25.113  0.00  0.00     0.007 A 
ATOM      3  C   UNL d   1      19.869 -20.469  25.994  0.00  0.00    -0.033 A 
ATOM      4  C   UNL d   1      18.137 -19.671  24.095  0.00  0.00    -0.013 A 
ATOM      5  C   UNL d   1      19.221 -20.860  26.709  0.00  0.00     0.007 A 
ATOM      6  C   UNL d   1      17.829 -20.443  25.647  0.00  0.00     0.011 A 
ATOM      7  C   UNL d   1      18.765 -19.298  23.413  0.00  0.00    -0.069 A 
ATOM      8  C   UNL d   1      18.194 -20.847  26.535  0.00  0.00     0.007 A 
ATOM      9  C   UNL d   1      19.602 -21.281  27.634  0.00  0.00     0.010 A 
ATOM     10  C   UNL d   1      18.407 -18.892  22.522  0.00  0.00     0.038 A 
ATOM     11  C   UNL d   1      20.109 -19.696  24.430  0.00  0.00     0.033 A 
ATOM     12  C   UNL d   1      20.942 -20.471  26.153  0.00  0.00     0.044 A 
ATOM     13  C   UNL d   1      17.108 -19.666  23.936  0.00  0.00     0.016 A 
ATOM     14  C   UNL d   1      17.382 -18.875  22.341  0.00  0.00     0.053 A 
ATOM     15  C   UNL d   1      17.515 -20.196  25.091  0.00  0.00     0.016 C 
ATOM     16  C   UNL d   1      16.728 -19.265  23.052  0.00  0.00     0.022 A 
ATOM     17  C   UNL d   1      20.671 -21.294  27.816  0.00  0.00     0.157 A 
ATOM     18  C   UNL d   1      19.751 -19.310  23.580  0.00  0.00    -0.022 A 
ATOM     19  C   UNL d   1      21.346 -20.887  27.071  0.00  0.00     0.148 A 
ATOM     20  C   UNL d   1      20.490 -20.093  25.306  0.00  0.00     0.016 C 
ATOM     21  C   UNL d   1      17.282 -19.944  24.536  0.00  0.00     0.021 C 
ATOM     22  C   UNL d   1      19.107 -18.492  21.797  0.00  0.00    -0.005 A 
ATOM     23  C   UNL d   1      16.985 -18.458  21.421  0.00  0.00     0.021 A 
ATOM     24  C   UNL d   1      18.735 -18.070  20.870  0.00  0.00    -0.014 A 
ATOM     25  C   UNL d   1      18.669 -21.488  27.928  0.00  0.00     0.020 C 
ATOM     26  C   UNL d   1      17.667 -18.053  20.680  0.00  0.00     0.006 A 
ATOM     27  C   UNL d   1      20.091 -18.513  21.981  0.00  0.00     0.011 C 
ATOM     28  C   UNL d   1      19.372 -17.699  20.194  0.00  0.00     0.010 C 
ENDROOT
BRANCH   9  29
ATOM     29  C   UNL d   1      19.442 -21.720  28.518  0.00  0.00     0.176 C 
BRANCH  29  30
ATOM     30  O   UNL d   1      18.636 -22.296  28.652  0.00  0.00    -0.400 OA
ATOM     31  H   UNL d   1      18.240 -22.388  28.185  0.00  0.00     0.209 HD
ENDBRANCH  29  30
ENDBRANCH   9  29
BRANCH  17  32
ATOM     32  O   UNL d   1      21.033 -21.680  28.665  0.00  0.00    -0.392 OA
ATOM     33  H   UNL d   1      20.779 -22.191  28.906  0.00  0.00     0.210 HD
ENDBRANCH  17  32
BRANCH  19  34
ATOM     34  O   UNL d   1      22.333 -20.894  27.228  0.00  0.00    -0.393 OA
ATOM     35  H   UNL d   1      22.713 -20.605  26.832  0.00  0.00     0.210 HD
ENDBRANCH  19  34
BRANCH  14  36
ATOM     36  C   UNL d   1      16.397 -18.860  22.166  0.00  0.00     0.149 C 
ATOM     37  O   UNL d   1      15.974 -19.588  21.628  0.00  0.00    -0.649 OA
BRANCH  36  38
ATOM     38  O   UNL d   1      15.837 -18.116  22.529  0.00  0.00    -0.776 OA
ATOM     39  H   UNL d   1      16.052 -17.762  22.990  0.00  0.00     0.167 HD
ENDBRANCH  36  38
ENDBRANCH  14  36
TORSDOF 6
ENDMDL
MODEL 5
REMARK VINA RESULT:   -10.988     25.022     26.791
REMARK INTER + INTRA:         -12.250
REMARK INTER:                 -13.588
REMARK INTRA:                   1.338
REMARK UNBOUND:                 1.308
REMARK  6 active torsions:
REMARK  status: ('A' for Active; 'I' for Inactive)
REMARK    1  A    between atoms: C_22  and  O_1 
REMARK    2  A    between atoms: C_24  and  O_2 
REMARK    3  A    between atoms: O_3  and  C_30 
REMARK    4  A    between atoms: O_4  and  C_33 
REMARK    5  A    between atoms: C_14  and  C_30 
REMARK    6  A    between atoms: C_19  and  C_33 
ROOT
ATOM      1  C   UNL d   1      -2.071 -36.666  21.465  0.00  0.00    -0.028 A 
ATOM      2  C   UNL d   1      -1.426 -36.724  20.703  0.00  0.00     0.007 A 
ATOM      3  C   UNL d   1      -1.092 -37.648  20.355  0.00  0.00    -0.033 A 
ATOM      4  C   UNL d   1      -2.383 -35.773  21.788  0.00  0.00    -0.013 A 
ATOM      5  C   UNL d   1      -1.434 -38.521  20.806  0.00  0.00     0.007 A 
ATOM      6  C   UNL d   1      -2.427 -37.526  21.931  0.00  0.00     0.011 A 
ATOM      7  C   UNL d   1      -2.050 -34.938  21.350  0.00  0.00    -0.069 A 
ATOM      8  C   UNL d   1      -2.106 -38.460  21.600  0.00  0.00     0.007 A 
ATOM      9  C   UNL d   1      -1.100 -39.495  20.461  0.00  0.00     0.010 A 
ATOM     10  C   UNL d   1      -2.366 -34.000  21.676  0.00  0.00     0.038 A 
ATOM     11  C   UNL d   1      -1.092 -35.890  20.265  0.00  0.00     0.033 A 
ATOM     12  C   UNL d   1      -0.391 -37.686  19.527  0.00  0.00     0.044 A 
ATOM     13  C   UNL d   1      -3.056 -35.728  22.583  0.00  0.00     0.016 A 
ATOM     14  C   UNL d   1      -3.038 -33.931  22.468  0.00  0.00     0.053 A 
ATOM     15  C   UNL d   1      -2.682 -36.952  22.203  0.00  0.00     0.016 C 
ATOM     16  C   UNL d   1      -3.385 -34.801  22.925  0.00  0.00     0.022 A 
ATOM     17  C   UNL d   1      -0.400 -39.558  19.635  0.00  0.00     0.157 A 
ATOM     18  C   UNL d   1      -1.404 -34.996  20.588  0.00  0.00    -0.022 A 
ATOM     19  C   UNL d   1      -0.043 -38.648  19.165  0.00  0.00     0.148 A 
ATOM     20  C   UNL d   1      -0.763 -36.808  19.922  0.00  0.00     0.016 C 
ATOM     21  C   UNL d   1      -2.885 -36.369  22.414  0.00  0.00     0.021 C 
ATOM     22  C   UNL d   1      -1.990 -33.109  21.185  0.00  0.00    -0.005 A 
ATOM     23  C   UNL d   1      -3.381 -32.966  22.825  0.00  0.00     0.021 A 
ATOM     24  C   UNL d   1      -2.319 -32.132  21.524  0.00  0.00    -0.014 A 
ATOM     25  C   UNL d   1      -1.667 -39.939  21.155  0.00  0.00     0.020 C 
ATOM     26  C   UNL d   1      -3.020 -32.060  22.350  0.00  0.00     0.006 A 
ATOM     27  C   UNL d   1      -1.345 -33.186  20.424  0.00  0.00     0.011 C 
ATOM     28  C   UNL d   1      -1.979 -31.304  21.079  0.00  0.00     0.010 C 
ENDROOT
BRANCH   9  29
ATOM     29  C   UNL d   1      -1.115 -40.492  20.531  0.00  0.00     0.176 C 
BRANCH  29  30
ATOM     30  O   UNL d   1      -1.890 -40.952  20.964  0.00  0.00    -0.400 OA
ATOM     31  H   UNL d   1      -1.871 -41.563  21.065  0.00  0.00     0.209 HD
ENDBRANCH  29  30
ENDBRANCH   9  29
BRANCH  17  32
ATOM     32  O   UNL d   1      -0.086 -40.449  19.309  0.00  0.00    -0.392 OA
ATOM     33  H   UNL d   1      -0.492 -40.911  19.226  0.00  0.00     0.210 HD
ENDBRANCH  17  32
BRANCH  19  34
ATOM     34  O   UNL d   1       0.602 -38.695  18.403  0.00  0.00    -0.393 OA
ATOM     35  H   UNL d   1       0.746 -38.182  18.085  0.00  0.00     0.210 HD
ENDBRANCH  19  34
BRANCH  14  36
ATOM     36  C   UNL d   1      -3.683 -33.865  23.229  0.00  0.00     0.149 C 
ATOM     37  O   UNL d   1      -3.351 -33.916  24.171  0.00  0.00    -0.649 OA
BRANCH  36  38
ATOM     38  O   UNL d   1      -4.659 -33.747  23.049  0.00  0.00    -0.776 OA
ATOM     39  H   UNL d   1      -4.998 -34.226  22.850  0.00  0.00     0.167 HD
ENDBRANCH  36  38
ENDBRANCH  14  36
TORSDOF 6
ENDMDL
