MODEL 1
REMARK VINA RESULT:    -7.986      0.000      0.000
REMARK INTER + INTRA:          -7.786
REMARK INTER:                  -9.691
REMARK INTRA:                   1.906
REMARK UNBOUND:                 1.834
REMARK  5 active torsions:
REMARK  status: ('A' for Active; 'I' for Inactive)
REMARK    1  A    between atoms: O_2  and  C_13 
REMARK    2  A    between atoms: O_3  and  C_19 
REMARK    3  A    between atoms: O_5  and  C_17 
REMARK    4  A    between atoms: O_6  and  C_21 
REMARK    5  A    between atoms: C_8  and  C_10 
ROOT
ATOM      1  O   UNL d   1      -3.736   0.660  38.453  0.00  0.00    -0.309 OA
ATOM      2  O   UNL d   1      -5.061  -1.735  39.681  0.00  0.00    -0.287 OA
ATOM      3  C   UNL d   1      -4.211  -0.236  39.857  0.00  0.00     0.081 A 
ATOM      4  C   UNL d   1      -4.145  -0.040  37.868  0.00  0.00     0.090 A 
ATOM      5  C   UNL d   1      -3.769   0.562  39.447  0.00  0.00     0.095 A 
ATOM      6  C   UNL d   1      -4.620  -0.936  39.272  0.00  0.00     0.190 A 
ATOM      7  C   UNL d   1      -4.586  -0.839  38.277  0.00  0.00     0.094 A 
ATOM      8  C   UNL d   1      -4.253  -0.351  40.891  0.00  0.00     0.085 A 
ATOM      9  C   UNL d   1      -3.339   1.300  40.044  0.00  0.00     0.075 A 
ATOM     10  C   UNL d   1      -3.370   1.205  41.081  0.00  0.00     0.071 A 
ATOM     11  C   UNL d   1      -3.830   0.374  41.507  0.00  0.00     0.074 A 
ENDROOT
BRANCH   4  12
ATOM     12  C   UNL d   1      -4.111   0.057  36.873  0.00  0.00     0.001 A 
ATOM     13  C   UNL d   1      -4.627   0.788  36.425  0.00  0.00     0.054 A 
ATOM     14  C   UNL d   1      -4.593   0.886  35.430  0.00  0.00     0.102 A 
ATOM     15  C   UNL d   1      -4.045   0.253  34.884  0.00  0.00     0.099 A 
ATOM     16  C   UNL d   1      -3.530  -0.477  35.332  0.00  0.00     0.040 A 
ATOM     17  C   UNL d   1      -3.563  -0.575  36.326  0.00  0.00     0.017 A 
BRANCH  14  18
ATOM     18  O   UNL d   1      -5.109   1.616  34.982  0.00  0.00    -0.353 OA
ATOM     19  C   UNL d   1      -5.916   2.004  35.427  0.00  0.00     0.210 C 
ENDBRANCH  14  18
BRANCH  15  20
ATOM     20  O   UNL d   1      -4.012   0.351  33.889  0.00  0.00    -0.358 OA
ATOM     21  H   UNL d   1      -4.532   0.465  33.571  0.00  0.00     0.217 HD
ENDBRANCH  15  20
ENDBRANCH   4  12
BRANCH   8  22
ATOM     22  O   UNL d   1      -4.698  -1.154  41.290  0.00  0.00    -0.360 OA
ATOM     23  H   UNL d   1      -4.372  -1.543  41.645  0.00  0.00     0.217 HD
ENDBRANCH   8  22
BRANCH  10  24
ATOM     24  O   UNL d   1      -2.960   1.908  41.662  0.00  0.00    -0.361 OA
ATOM     25  H   UNL d   1      -3.313   2.362  41.895  0.00  0.00     0.217 HD
ENDBRANCH  10  24
TORSDOF 5
ENDMDL
MODEL 2
REMARK VINA RESULT:    -7.852      1.518      5.495
REMARK INTER + INTRA:          -7.625
REMARK INTER:                  -9.672
REMARK INTRA:                   2.047
REMARK UNBOUND:                 1.834
REMARK  5 active torsions:
REMARK  status: ('A' for Active; 'I' for Inactive)
REMARK    1  A    between atoms: O_2  and  C_13 
REMARK    2  A    between atoms: O_3  and  C_19 
REMARK    3  A    between atoms: O_5  and  C_17 
REMARK    4  A    between atoms: O_6  and  C_21 
REMARK    5  A    between atoms: C_8  and  C_10 
ROOT
ATOM      1  O   UNL d   1      -3.720   0.086  39.177  0.00  0.00    -0.309 OA
ATOM      2  O   UNL d   1      -3.487   2.919  38.220  0.00  0.00    -0.287 OA
ATOM      3  C   UNL d   1      -3.606   1.226  37.878  0.00  0.00     0.081 A 
ATOM      4  C   UNL d   1      -3.678   0.835  39.838  0.00  0.00     0.090 A 
ATOM      5  C   UNL d   1      -3.683   0.281  38.197  0.00  0.00     0.095 A 
ATOM      6  C   UNL d   1      -3.564   1.975  38.539  0.00  0.00     0.190 A 
ATOM      7  C   UNL d   1      -3.601   1.779  39.519  0.00  0.00     0.094 A 
ATOM      8  C   UNL d   1      -3.567   1.445  36.861  0.00  0.00     0.085 A 
ATOM      9  C   UNL d   1      -3.728  -0.510  37.520  0.00  0.00     0.075 A 
ATOM     10  C   UNL d   1      -3.691  -0.314  36.498  0.00  0.00     0.071 A 
ATOM     11  C   UNL d   1      -3.610   0.669  36.166  0.00  0.00     0.074 A 
ENDROOT
BRANCH   4  12
ATOM     12  C   UNL d   1      -3.714   0.639  40.818  0.00  0.00     0.001 A 
ATOM     13  C   UNL d   1      -4.361  -0.038  41.169  0.00  0.00     0.054 A 
ATOM     14  C   UNL d   1      -4.397  -0.233  42.149  0.00  0.00     0.102 A 
ATOM     15  C   UNL d   1      -3.787   0.248  42.778  0.00  0.00     0.099 A 
ATOM     16  C   UNL d   1      -3.140   0.925  42.427  0.00  0.00     0.040 A 
ATOM     17  C   UNL d   1      -3.104   1.120  41.447  0.00  0.00     0.017 A 
BRANCH  14  18
ATOM     18  O   UNL d   1      -5.044  -0.910  42.500  0.00  0.00    -0.353 OA
ATOM     19  C   UNL d   1      -5.720  -1.321  41.888  0.00  0.00     0.210 C 
ENDBRANCH  14  18
BRANCH  15  20
ATOM     20  O   UNL d   1      -3.823   0.052  43.758  0.00  0.00    -0.358 OA
ATOM     21  H   UNL d   1      -3.307  -0.110  44.061  0.00  0.00     0.217 HD
ENDBRANCH  15  20
ENDBRANCH   4  12
BRANCH   8  22
ATOM     22  O   UNL d   1      -3.489   2.393  36.553  0.00  0.00    -0.360 OA
ATOM     23  H   UNL d   1      -2.991   2.575  36.233  0.00  0.00     0.217 HD
ENDBRANCH   8  22
BRANCH  10  24
ATOM     24  O   UNL d   1      -3.732  -1.066  35.840  0.00  0.00    -0.361 OA
ATOM     25  H   UNL d   1      -3.807  -0.946  35.236  0.00  0.00     0.217 HD
ENDBRANCH  10  24
TORSDOF 5
ENDMDL
MODEL 3
REMARK VINA RESULT:    -7.815      1.055      5.136
REMARK INTER + INTRA:          -7.580
REMARK INTER:                  -9.421
REMARK INTRA:                   1.841
REMARK UNBOUND:                 1.834
REMARK  5 active torsions:
REMARK  status: ('A' for Active; 'I' for Inactive)
REMARK    1  A    between atoms: O_2  and  C_13 
REMARK    2  A    between atoms: O_3  and  C_19 
REMARK    3  A    between atoms: O_5  and  C_17 
REMARK    4  A    between atoms: O_6  and  C_21 
REMARK    5  A    between atoms: C_8  and  C_10 
ROOT
ATOM      1  O   UNL d   1      -5.290   0.322  37.565  0.00  0.00    -0.309 OA
ATOM      2  O   UNL d   1      -3.225  -0.974  35.818  0.00  0.00    -0.287 OA
ATOM      3  C   UNL d   1      -4.482   0.197  36.039  0.00  0.00     0.081 A 
ATOM      4  C   UNL d   1      -4.721  -0.416  37.927  0.00  0.00     0.090 A 
ATOM      5  C   UNL d   1      -5.171   0.629  36.621  0.00  0.00     0.095 A 
ATOM      6  C   UNL d   1      -3.913  -0.542  36.401  0.00  0.00     0.190 A 
ATOM      7  C   UNL d   1      -4.033  -0.848  37.345  0.00  0.00     0.094 A 
ATOM      8  C   UNL d   1      -4.346   0.505  35.053  0.00  0.00     0.085 A 
ATOM      9  C   UNL d   1      -5.771   1.399  36.258  0.00  0.00     0.075 A 
ATOM     10  C   UNL d   1      -5.652   1.723  35.276  0.00  0.00     0.071 A 
ATOM     11  C   UNL d   1      -4.935   1.274  34.669  0.00  0.00     0.074 A 
ENDROOT
BRANCH   4  12
ATOM     12  C   UNL d   1      -4.841  -0.723  38.872  0.00  0.00     0.001 A 
ATOM     13  C   UNL d   1      -4.308  -0.301  39.605  0.00  0.00     0.054 A 
ATOM     14  C   UNL d   1      -4.427  -0.608  40.550  0.00  0.00     0.102 A 
ATOM     15  C   UNL d   1      -5.080  -1.335  40.760  0.00  0.00     0.099 A 
ATOM     16  C   UNL d   1      -5.614  -1.756  40.027  0.00  0.00     0.040 A 
ATOM     17  C   UNL d   1      -5.494  -1.450  39.082  0.00  0.00     0.017 A 
BRANCH  14  18
ATOM     18  O   UNL d   1      -3.894  -0.187  41.283  0.00  0.00    -0.353 OA
ATOM     19  C   UNL d   1      -3.536   0.740  41.172  0.00  0.00     0.210 C 
ENDBRANCH  14  18
BRANCH  15  20
ATOM     20  O   UNL d   1      -5.200  -1.642  41.705  0.00  0.00    -0.358 OA
ATOM     21  H   UNL d   1      -4.830  -1.422  42.151  0.00  0.00     0.217 HD
ENDBRANCH  15  20
ENDBRANCH   4  12
BRANCH   8  22
ATOM     22  O   UNL d   1      -3.655   0.066  34.480  0.00  0.00    -0.360 OA
ATOM     23  H   UNL d   1      -3.210   0.407  34.215  0.00  0.00     0.217 HD
ENDBRANCH   8  22
BRANCH  10  24
ATOM     24  O   UNL d   1      -6.223   2.462  34.917  0.00  0.00    -0.361 OA
ATOM     25  H   UNL d   1      -6.117   2.689  34.350  0.00  0.00     0.217 HD
ENDBRANCH  10  24
TORSDOF 5
ENDMDL
MODEL 4
REMARK VINA RESULT:    -7.659     26.493     27.851
REMARK INTER + INTRA:          -7.392
REMARK INTER:                  -9.358
REMARK INTRA:                   1.966
REMARK UNBOUND:                 1.834
REMARK  5 active torsions:
REMARK  status: ('A' for Active; 'I' for Inactive)
REMARK    1  A    between atoms: O_2  and  C_13 
REMARK    2  A    between atoms: O_3  and  C_19 
REMARK    3  A    between atoms: O_5  and  C_17 
REMARK    4  A    between atoms: O_6  and  C_21 
REMARK    5  A    between atoms: C_8  and  C_10 
ROOT
ATOM      1  O   UNL d   1      19.770   9.871  27.780  0.00  0.00    -0.309 OA
ATOM      2  O   UNL d   1      18.784   7.065  28.172  0.00  0.00    -0.287 OA
ATOM      3  C   UNL d   1      18.962   8.466  27.169  0.00  0.00     0.081 A 
ATOM      4  C   UNL d   1      19.921   9.405  28.652  0.00  0.00     0.090 A 
ATOM      5  C   UNL d   1      19.291   9.402  27.039  0.00  0.00     0.095 A 
ATOM      6  C   UNL d   1      19.113   8.001  28.041  0.00  0.00     0.190 A 
ATOM      7  C   UNL d   1      19.592   8.470  28.783  0.00  0.00     0.094 A 
ATOM      8  C   UNL d   1      18.461   7.965  26.406  0.00  0.00     0.085 A 
ATOM      9  C   UNL d   1      19.141   9.900  26.136  0.00  0.00     0.075 A 
ATOM     10  C   UNL d   1      18.642   9.418  25.360  0.00  0.00     0.071 A 
ATOM     11  C   UNL d   1      18.300   8.444  25.496  0.00  0.00     0.074 A 
ENDROOT
BRANCH   4  12
ATOM     12  C   UNL d   1      20.401   9.875  29.393  0.00  0.00     0.001 A 
ATOM     13  C   UNL d   1      20.005  10.697  29.803  0.00  0.00     0.054 A 
ATOM     14  C   UNL d   1      20.485  11.166  30.544  0.00  0.00     0.102 A 
ATOM     15  C   UNL d   1      21.360  10.814  30.876  0.00  0.00     0.099 A 
ATOM     16  C   UNL d   1      21.755   9.992  30.466  0.00  0.00     0.040 A 
ATOM     17  C   UNL d   1      21.276   9.522  29.725  0.00  0.00     0.017 A 
BRANCH  14  18
ATOM     18  O   UNL d   1      20.090  11.988  30.954  0.00  0.00    -0.353 OA
ATOM     19  C   UNL d   1      19.609  12.651  30.380  0.00  0.00     0.210 C 
ENDBRANCH  14  18
BRANCH  15  20
ATOM     20  O   UNL d   1      21.840  11.283  31.617  0.00  0.00    -0.358 OA
ATOM     21  H   UNL d   1      22.395  11.080  31.805  0.00  0.00     0.217 HD
ENDBRANCH  15  20
ENDBRANCH   4  12
BRANCH   8  22
ATOM     22  O   UNL d   1      18.137   7.030  26.548  0.00  0.00    -0.360 OA
ATOM     23  H   UNL d   1      18.341   6.701  27.032  0.00  0.00     0.217 HD
ENDBRANCH   8  22
BRANCH  10  24
ATOM     24  O   UNL d   1      18.494   9.887  24.489  0.00  0.00    -0.361 OA
ATOM     25  H   UNL d   1      18.275   9.573  24.001  0.00  0.00     0.217 HD
ENDBRANCH  10  24
TORSDOF 5
ENDMDL
MODEL 5
REMARK VINA RESULT:    -7.509      1.729      2.123
REMARK INTER + INTRA:          -7.212
REMARK INTER:                  -9.214
REMARK INTRA:                   2.002
REMARK UNBOUND:                 1.834
REMARK  5 active torsions:
REMARK  status: ('A' for Active; 'I' for Inactive)
REMARK    1  A    between atoms: O_2  and  C_13 
REMARK    2  A    between atoms: O_3  and  C_19 
REMARK    3  A    between atoms: O_5  and  C_17 
REMARK    4  A    between atoms: O_6  and  C_21 
REMARK    5  A    between atoms: C_8  and  C_10 
ROOT
ATOM      1  O   UNL d   1      -5.188   0.163  39.171  0.00  0.00    -0.309 OA
ATOM      2  O   UNL d   1      -5.073  -2.835  39.150  0.00  0.00    -0.287 OA
ATOM      3  C   UNL d   1      -5.379  -1.352  39.990  0.00  0.00     0.081 A 
ATOM      4  C   UNL d   1      -4.920  -0.322  38.338  0.00  0.00     0.090 A 
ATOM      5  C   UNL d   1      -5.418  -0.352  39.997  0.00  0.00     0.095 A 
ATOM      6  C   UNL d   1      -5.111  -1.836  39.157  0.00  0.00     0.190 A 
ATOM      7  C   UNL d   1      -4.882  -1.321  38.331  0.00  0.00     0.094 A 
ATOM      8  C   UNL d   1      -5.615  -1.901  40.842  0.00  0.00     0.085 A 
ATOM      9  C   UNL d   1      -5.695   0.167  40.857  0.00  0.00     0.075 A 
ATOM     10  C   UNL d   1      -5.935  -0.363  41.721  0.00  0.00     0.071 A 
ATOM     11  C   UNL d   1      -5.895  -1.403  41.714  0.00  0.00     0.074 A 
ENDROOT
BRANCH   4  12
ATOM     12  C   UNL d   1      -4.691   0.193  37.512  0.00  0.00     0.001 A 
ATOM     13  C   UNL d   1      -4.047   0.957  37.562  0.00  0.00     0.054 A 
ATOM     14  C   UNL d   1      -3.818   1.472  36.736  0.00  0.00     0.102 A 
ATOM     15  C   UNL d   1      -4.232   1.223  35.860  0.00  0.00     0.099 A 
ATOM     16  C   UNL d   1      -4.875   0.459  35.811  0.00  0.00     0.040 A 
ATOM     17  C   UNL d   1      -5.105  -0.056  36.636  0.00  0.00     0.017 A 
BRANCH  14  18
ATOM     18  O   UNL d   1      -3.174   2.235  36.785  0.00  0.00    -0.353 OA
ATOM     19  C   UNL d   1      -2.657   2.400  37.625  0.00  0.00     0.210 C 
ENDBRANCH  14  18
BRANCH  15  20
ATOM     20  O   UNL d   1      -4.002   1.738  35.034  0.00  0.00    -0.358 OA
ATOM     21  H   UNL d   1      -3.452   1.655  34.760  0.00  0.00     0.217 HD
ENDBRANCH  15  20
ENDBRANCH   4  12
BRANCH   8  22
ATOM     22  O   UNL d   1      -5.574  -2.900  40.824  0.00  0.00    -0.360 OA
ATOM     23  H   UNL d   1      -5.148  -3.186  40.477  0.00  0.00     0.217 HD
ENDBRANCH   8  22
BRANCH  10  24
ATOM     24  O   UNL d   1      -6.202   0.125  42.552  0.00  0.00    -0.361 OA
ATOM     25  H   UNL d   1      -6.163  -0.156  43.103  0.00  0.00     0.217 HD
ENDBRANCH  10  24
TORSDOF 5
ENDMDL
