MODEL 1
REMARK VINA RESULT:    -7.725      0.000      0.000
REMARK INTER + INTRA:          -7.629
REMARK INTER:                  -8.647
REMARK INTRA:                   1.018
REMARK UNBOUND:                 0.999
REMARK  3 active torsions:
REMARK  status: ('A' for Active; 'I' for Inactive)
REMARK    1  A    between atoms: O_2  and  C_10 
REMARK    2  A    between atoms: O_4  and  C_13 
REMARK    3  A    between atoms: C_7  and  C_9 
ROOT
ATOM      1  O   UNL d   1      -3.975   1.299  38.598  0.00  0.00    -0.309 OA
ATOM      2  O   UNL d   1      -3.760  -1.686  38.381  0.00  0.00    -0.287 OA
ATOM      3  C   UNL d   1      -3.861  -0.130  37.626  0.00  0.00     0.081 A 
ATOM      4  C   UNL d   1      -3.933   0.865  37.698  0.00  0.00     0.095 A 
ATOM      5  C   UNL d   1      -3.946   0.738  39.426  0.00  0.00     0.090 A 
ATOM      6  C   UNL d   1      -3.832  -0.691  38.453  0.00  0.00     0.190 A 
ATOM      7  C   UNL d   1      -3.815  -0.596  36.696  0.00  0.00     0.085 A 
ATOM      8  C   UNL d   1      -3.874  -0.257  39.353  0.00  0.00     0.094 A 
ATOM      9  C   UNL d   1      -3.964   1.462  36.845  0.00  0.00     0.075 A 
ATOM     10  C   UNL d   1      -3.920   1.017  35.905  0.00  0.00     0.071 A 
ATOM     11  C   UNL d   1      -3.845  -0.019  35.829  0.00  0.00     0.074 A 
ENDROOT
BRANCH   5  12
ATOM     12  C   UNL d   1      -3.989   1.172  40.325  0.00  0.00    -0.002 A 
ATOM     13  C   UNL d   1      -4.864   1.503  40.680  0.00  0.00     0.014 A 
ATOM     14  C   UNL d   1      -4.906   1.937  41.580  0.00  0.00     0.001 A 
ATOM     15  C   UNL d   1      -4.074   2.040  42.125  0.00  0.00     0.000 A 
ATOM     16  C   UNL d   1      -3.200   1.710  41.770  0.00  0.00     0.001 A 
ATOM     17  C   UNL d   1      -3.157   1.276  40.871  0.00  0.00     0.014 A 
ENDBRANCH   5  12
BRANCH   7  18
ATOM     18  O   UNL d   1      -3.744  -1.592  36.635  0.00  0.00    -0.360 OA
ATOM     19  H   UNL d   1      -4.257  -1.938  36.608  0.00  0.00     0.217 HD
ENDBRANCH   7  18
BRANCH  10  20
ATOM     20  O   UNL d   1      -3.949   1.582  35.079  0.00  0.00    -0.361 OA
ATOM     21  H   UNL d   1      -4.279   1.395  34.589  0.00  0.00     0.217 HD
ENDBRANCH  10  20
TORSDOF 3
ENDMDL
MODEL 2
REMARK VINA RESULT:    -7.486     26.329     27.283
REMARK INTER + INTRA:          -7.362
REMARK INTER:                  -8.374
REMARK INTRA:                   1.012
REMARK UNBOUND:                 0.999
REMARK  3 active torsions:
REMARK  status: ('A' for Active; 'I' for Inactive)
REMARK    1  A    between atoms: O_2  and  C_10 
REMARK    2  A    between atoms: O_4  and  C_13 
REMARK    3  A    between atoms: C_7  and  C_9 
ROOT
ATOM      1  O   UNL d   1      19.861   9.703  27.626  0.00  0.00    -0.309 OA
ATOM      2  O   UNL d   1      18.630   7.010  28.110  0.00  0.00    -0.287 OA
ATOM      3  C   UNL d   1      18.986   8.326  27.042  0.00  0.00     0.081 A 
ATOM      4  C   UNL d   1      19.397   9.224  26.881  0.00  0.00     0.095 A 
ATOM      5  C   UNL d   1      19.916   9.284  28.532  0.00  0.00     0.090 A 
ATOM      6  C   UNL d   1      19.041   7.907  27.949  0.00  0.00     0.190 A 
ATOM      7  C   UNL d   1      18.500   7.816  26.276  0.00  0.00     0.085 A 
ATOM      8  C   UNL d   1      19.505   8.386  28.694  0.00  0.00     0.094 A 
ATOM      9  C   UNL d   1      19.349   9.673  25.942  0.00  0.00     0.075 A 
ATOM     10  C   UNL d   1      18.867   9.181  25.161  0.00  0.00     0.071 A 
ATOM     11  C   UNL d   1      18.439   8.247  25.329  0.00  0.00     0.074 A 
ENDROOT
BRANCH   5  12
ATOM     12  C   UNL d   1      20.380   9.762  29.277  0.00  0.00    -0.002 A 
ATOM     13  C   UNL d   1      21.317   9.514  29.524  0.00  0.00     0.014 A 
ATOM     14  C   UNL d   1      21.781   9.993  30.269  0.00  0.00     0.001 A 
ATOM     15  C   UNL d   1      21.309  10.719  30.768  0.00  0.00     0.000 A 
ATOM     16  C   UNL d   1      20.372  10.967  30.521  0.00  0.00     0.001 A 
ATOM     17  C   UNL d   1      19.908  10.489  29.776  0.00  0.00     0.014 A 
ENDBRANCH   5  12
BRANCH   7  18
ATOM     18  O   UNL d   1      18.093   6.919  26.449  0.00  0.00    -0.360 OA
ATOM     19  H   UNL d   1      17.784   6.816  26.976  0.00  0.00     0.217 HD
ENDBRANCH   7  18
BRANCH  10  20
ATOM     20  O   UNL d   1      18.815   9.604  24.256  0.00  0.00    -0.361 OA
ATOM     21  H   UNL d   1      19.267   9.507  23.843  0.00  0.00     0.217 HD
ENDBRANCH  10  20
TORSDOF 3
ENDMDL
MODEL 3
REMARK VINA RESULT:    -7.446      1.384      4.397
REMARK INTER + INTRA:          -7.317
REMARK INTER:                  -8.390
REMARK INTRA:                   1.073
REMARK UNBOUND:                 0.999
REMARK  3 active torsions:
REMARK  status: ('A' for Active; 'I' for Inactive)
REMARK    1  A    between atoms: O_2  and  C_10 
REMARK    2  A    between atoms: O_4  and  C_13 
REMARK    3  A    between atoms: C_7  and  C_9 
ROOT
ATOM      1  O   UNL d   1      -3.814   0.747  38.325  0.00  0.00    -0.309 OA
ATOM      2  O   UNL d   1      -4.992  -1.766  39.463  0.00  0.00    -0.287 OA
ATOM      3  C   UNL d   1      -4.221  -0.233  39.694  0.00  0.00     0.081 A 
ATOM      4  C   UNL d   1      -3.828   0.605  39.315  0.00  0.00     0.095 A 
ATOM      5  C   UNL d   1      -4.192   0.051  37.715  0.00  0.00     0.090 A 
ATOM      6  C   UNL d   1      -4.599  -0.928  39.084  0.00  0.00     0.190 A 
ATOM      7  C   UNL d   1      -4.243  -0.394  40.723  0.00  0.00     0.085 A 
ATOM      8  C   UNL d   1      -4.585  -0.787  38.094  0.00  0.00     0.094 A 
ATOM      9  C   UNL d   1      -3.430   1.339  39.938  0.00  0.00     0.075 A 
ATOM     10  C   UNL d   1      -3.441   1.199  40.970  0.00  0.00     0.071 A 
ATOM     11  C   UNL d   1      -3.850   0.327  41.365  0.00  0.00     0.074 A 
ENDROOT
BRANCH   5  12
ATOM     12  C   UNL d   1      -4.178   0.193  36.725  0.00  0.00    -0.002 A 
ATOM     13  C   UNL d   1      -4.707   0.938  36.319  0.00  0.00     0.014 A 
ATOM     14  C   UNL d   1      -4.692   1.079  35.329  0.00  0.00     0.001 A 
ATOM     15  C   UNL d   1      -4.149   0.476  34.745  0.00  0.00     0.000 A 
ATOM     16  C   UNL d   1      -3.620  -0.269  35.151  0.00  0.00     0.001 A 
ATOM     17  C   UNL d   1      -3.634  -0.411  36.141  0.00  0.00     0.014 A 
ENDBRANCH   5  12
BRANCH   7  18
ATOM     18  O   UNL d   1      -4.638  -1.235  41.091  0.00  0.00    -0.360 OA
ATOM     19  H   UNL d   1      -4.779  -1.273  41.693  0.00  0.00     0.217 HD
ENDBRANCH   7  18
BRANCH  10  20
ATOM     20  O   UNL d   1      -3.062   1.897  41.576  0.00  0.00    -0.361 OA
ATOM     21  H   UNL d   1      -2.477   2.089  41.501  0.00  0.00     0.217 HD
ENDBRANCH  10  20
TORSDOF 3
ENDMDL
MODEL 4
REMARK VINA RESULT:    -7.300     14.547     15.367
REMARK INTER + INTRA:          -7.154
REMARK INTER:                  -8.564
REMARK INTRA:                   1.409
REMARK UNBOUND:                 0.999
REMARK  3 active torsions:
REMARK  status: ('A' for Active; 'I' for Inactive)
REMARK    1  A    between atoms: O_2  and  C_10 
REMARK    2  A    between atoms: O_4  and  C_13 
REMARK    3  A    between atoms: C_7  and  C_9 
ROOT
ATOM      1  O   UNL d   1       5.580  13.013  37.176  0.00  0.00    -0.309 OA
ATOM      2  O   UNL d   1       5.301  10.587  38.918  0.00  0.00    -0.287 OA
ATOM      3  C   UNL d   1       4.988  11.405  37.424  0.00  0.00     0.081 A 
ATOM      4  C   UNL d   1       5.081  12.213  36.843  0.00  0.00     0.095 A 
ATOM      5  C   UNL d   1       5.986  13.005  38.089  0.00  0.00     0.090 A 
ATOM      6  C   UNL d   1       5.394  11.396  38.337  0.00  0.00     0.190 A 
ATOM      7  C   UNL d   1       4.471  10.564  37.090  0.00  0.00     0.085 A 
ATOM      8  C   UNL d   1       5.893  12.196  38.670  0.00  0.00     0.094 A 
ATOM      9  C   UNL d   1       4.663  12.238  35.889  0.00  0.00     0.075 A 
ATOM     10  C   UNL d   1       4.141  11.408  35.535  0.00  0.00     0.071 A 
ATOM     11  C   UNL d   1       4.045  10.566  36.140  0.00  0.00     0.074 A 
ENDROOT
BRANCH   5  12
ATOM     12  C   UNL d   1       6.485  13.805  38.422  0.00  0.00    -0.002 A 
ATOM     13  C   UNL d   1       6.399  14.681  37.948  0.00  0.00     0.014 A 
ATOM     14  C   UNL d   1       6.898  15.481  38.281  0.00  0.00     0.001 A 
ATOM     15  C   UNL d   1       7.484  15.405  39.088  0.00  0.00     0.000 A 
ATOM     16  C   UNL d   1       7.570  14.528  39.562  0.00  0.00     0.001 A 
ATOM     17  C   UNL d   1       7.071  13.728  39.229  0.00  0.00     0.014 A 
ENDBRANCH   5  12
BRANCH   7  18
ATOM     18  O   UNL d   1       4.384   9.761  37.680  0.00  0.00    -0.360 OA
ATOM     19  H   UNL d   1       3.906   9.373  37.607  0.00  0.00     0.217 HD
ENDBRANCH   7  18
BRANCH  10  20
ATOM     20  O   UNL d   1       3.737  11.421  34.621  0.00  0.00    -0.361 OA
ATOM     21  H   UNL d   1       3.326  11.860  34.470  0.00  0.00     0.217 HD
ENDBRANCH  10  20
TORSDOF 3
ENDMDL
MODEL 5
REMARK VINA RESULT:    -7.290      1.051      2.192
REMARK INTER + INTRA:          -7.143
REMARK INTER:                  -8.318
REMARK INTRA:                   1.175
REMARK UNBOUND:                 0.999
REMARK  3 active torsions:
REMARK  status: ('A' for Active; 'I' for Inactive)
REMARK    1  A    between atoms: O_2  and  C_10 
REMARK    2  A    between atoms: O_4  and  C_13 
REMARK    3  A    between atoms: C_7  and  C_9 
ROOT
ATOM      1  O   UNL d   1      -3.639   0.049  39.425  0.00  0.00    -0.309 OA
ATOM      2  O   UNL d   1      -3.468   2.669  37.974  0.00  0.00    -0.287 OA
ATOM      3  C   UNL d   1      -3.570   0.940  37.941  0.00  0.00     0.081 A 
ATOM      4  C   UNL d   1      -3.627   0.067  38.425  0.00  0.00     0.095 A 
ATOM      5  C   UNL d   1      -3.595   0.904  39.941  0.00  0.00     0.090 A 
ATOM      6  C   UNL d   1      -3.525   1.795  38.458  0.00  0.00     0.190 A 
ATOM      7  C   UNL d   1      -3.556   0.974  36.901  0.00  0.00     0.085 A 
ATOM      8  C   UNL d   1      -3.538   1.777  39.457  0.00  0.00     0.094 A 
ATOM      9  C   UNL d   1      -3.674  -0.833  37.901  0.00  0.00     0.075 A 
ATOM     10  C   UNL d   1      -3.661  -0.822  36.860  0.00  0.00     0.071 A 
ATOM     11  C   UNL d   1      -3.602   0.088  36.356  0.00  0.00     0.074 A 
ENDROOT
BRANCH   5  12
ATOM     12  C   UNL d   1      -3.607   0.886  40.941  0.00  0.00    -0.002 A 
ATOM     13  C   UNL d   1      -2.932   1.411  41.459  0.00  0.00     0.014 A 
ATOM     14  C   UNL d   1      -2.945   1.393  42.459  0.00  0.00     0.001 A 
ATOM     15  C   UNL d   1      -3.632   0.850  42.940  0.00  0.00     0.000 A 
ATOM     16  C   UNL d   1      -4.308   0.325  42.422  0.00  0.00     0.001 A 
ATOM     17  C   UNL d   1      -4.295   0.343  41.422  0.00  0.00     0.014 A 
ENDBRANCH   5  12
BRANCH   7  18
ATOM     18  O   UNL d   1      -3.499   1.854  36.428  0.00  0.00    -0.360 OA
ATOM     19  H   UNL d   1      -3.383   1.871  35.819  0.00  0.00     0.217 HD
ENDBRANCH   7  18
BRANCH  10  20
ATOM     20  O   UNL d   1      -3.706  -1.680  36.347  0.00  0.00    -0.361 OA
ATOM     21  H   UNL d   1      -4.238  -1.996  36.319  0.00  0.00     0.217 HD
ENDBRANCH  10  20
TORSDOF 3
ENDMDL
