MODEL 1
REMARK VINA RESULT:    -0.000      0.000      0.000
REMARK INTER + INTRA:           9.216
REMARK INTER:                   0.000
REMARK INTRA:                   9.216
REMARK UNBOUND:                 9.216
REMARK  3 active torsions:
REMARK  status: ('A' for Active; 'I' for Inactive)
REMARK    1  A    between atoms: O_1  and  C_4 
REMARK    2  A    between atoms: O_1  and  C_13 
REMARK    3  A    between atoms: C_3  and  C_4 
ROOT
ATOM      1  C   UNL d   1      26.311  11.401  -0.620  0.00  0.00     0.024 A 
ATOM      2  C   UNL d   1      26.776  11.981  -1.289  0.00  0.00     0.012 A 
ATOM      3  C   UNL d   1      25.315  11.310  -0.644  0.00  0.00     0.035 A 
ATOM      4  C   UNL d   1      26.246  12.469  -1.982  0.00  0.00     0.034 A 
ATOM      5  C   UNL d   1      25.250  12.378  -2.006  0.00  0.00    -0.087 A 
ATOM      6  C   UNL d   1      24.785  11.798  -1.337  0.00  0.00    -0.024 A 
ATOM      7  C   UNL d   1      24.720  12.866  -2.699  0.00  0.00     0.043 C 
ENDROOT
BRANCH   1   8
ATOM      8  C   UNL d   1      26.841  10.913   0.072  0.00  0.00     0.067 C 
ATOM      9  C   UNL d   1      26.928  10.131  -0.545  0.00  0.00     0.047 C 
ATOM     10  C   UNL d   1      26.754  11.694   0.690  0.00  0.00     0.047 C 
BRANCH   8  11
ATOM     11  O   UNL d   1      27.372  10.424   0.765  0.00  0.00    -0.311 OA
BRANCH  11  12
ATOM     12  C   UNL d   1      26.903   9.948   1.510  0.00  0.00     0.255 C 
ATOM     13  O   UNL d   1      26.430   9.086   1.332  0.00  0.00    -0.266 OA
ATOM     14  C   UNL d   1      26.909  10.335   2.432  0.00  0.00     0.126 C 
ENDBRANCH  11  12
ENDBRANCH   8  11
ENDBRANCH   1   8
TORSDOF 3
ENDMDL
MODEL 2
REMARK VINA RESULT:    -0.000     43.578     44.607
REMARK INTER + INTRA:           9.216
REMARK INTER:                   0.000
REMARK INTRA:                   9.216
REMARK UNBOUND:                 9.216
REMARK  3 active torsions:
REMARK  status: ('A' for Active; 'I' for Inactive)
REMARK    1  A    between atoms: O_1  and  C_4 
REMARK    2  A    between atoms: O_1  and  C_13 
REMARK    3  A    between atoms: C_3  and  C_4 
ROOT
ATOM      1  C   UNL d   1     -14.472  27.572  -7.501  0.00  0.00     0.024 A 
ATOM      2  C   UNL d   1     -15.073  27.405  -8.283  0.00  0.00     0.012 A 
ATOM      3  C   UNL d   1     -13.777  28.290  -7.549  0.00  0.00     0.035 A 
ATOM      4  C   UNL d   1     -14.979  27.955  -9.112  0.00  0.00     0.034 A 
ATOM      5  C   UNL d   1     -14.284  28.672  -9.161  0.00  0.00    -0.087 A 
ATOM      6  C   UNL d   1     -13.683  28.840  -8.379  0.00  0.00    -0.024 A 
ATOM      7  C   UNL d   1     -14.190  29.222  -9.991  0.00  0.00     0.043 C 
ENDROOT
BRANCH   1   8
ATOM      8  C   UNL d   1     -14.566  27.023  -6.671  0.00  0.00     0.067 C 
ATOM      9  C   UNL d   1     -15.223  27.683  -6.308  0.00  0.00     0.047 C 
ATOM     10  C   UNL d   1     -13.910  26.362  -7.034  0.00  0.00     0.047 C 
BRANCH   8  11
ATOM     11  O   UNL d   1     -14.661  26.473  -5.841  0.00  0.00    -0.311 OA
BRANCH  11  12
ATOM     12  C   UNL d   1     -15.433  25.845  -5.742  0.00  0.00     0.255 C 
ATOM     13  O   UNL d   1     -15.448  24.987  -6.256  0.00  0.00    -0.266 OA
ATOM     14  C   UNL d   1     -16.189  26.075  -5.130  0.00  0.00     0.126 C 
ENDBRANCH  11  12
ENDBRANCH   8  11
ENDBRANCH   1   8
TORSDOF 3
ENDMDL
MODEL 3
REMARK VINA RESULT:    -0.000     33.860     35.030
REMARK INTER + INTRA:           9.216
REMARK INTER:                   0.000
REMARK INTRA:                   9.216
REMARK UNBOUND:                 9.216
REMARK  3 active torsions:
REMARK  status: ('A' for Active; 'I' for Inactive)
REMARK    1  A    between atoms: O_1  and  C_4 
REMARK    2  A    between atoms: O_1  and  C_13 
REMARK    3  A    between atoms: C_3  and  C_4 
ROOT
ATOM      1  C   UNL d   1      24.947  -3.854  31.249  0.00  0.00     0.024 A 
ATOM      2  C   UNL d   1      24.143  -4.270  30.825  0.00  0.00     0.012 A 
ATOM      3  C   UNL d   1      25.746  -4.416  31.465  0.00  0.00     0.035 A 
ATOM      4  C   UNL d   1      24.137  -5.248  30.617  0.00  0.00     0.034 A 
ATOM      5  C   UNL d   1      24.936  -5.810  30.834  0.00  0.00    -0.087 A 
ATOM      6  C   UNL d   1      25.740  -5.394  31.258  0.00  0.00    -0.024 A 
ATOM      7  C   UNL d   1      24.930  -6.788  30.626  0.00  0.00     0.043 C 
ENDROOT
BRANCH   1   8
ATOM      8  C   UNL d   1      24.953  -2.876  31.457  0.00  0.00     0.067 C 
ATOM      9  C   UNL d   1      24.574  -3.066  32.362  0.00  0.00     0.047 C 
ATOM     10  C   UNL d   1      25.332  -2.686  30.551  0.00  0.00     0.047 C 
BRANCH   8  11
ATOM     11  O   UNL d   1      24.959  -1.898  31.665  0.00  0.00    -0.311 OA
BRANCH  11  12
ATOM     12  C   UNL d   1      24.121  -1.361  31.568  0.00  0.00     0.255 C 
ATOM     13  O   UNL d   1      23.784  -1.118  30.658  0.00  0.00    -0.266 OA
ATOM     14  C   UNL d   1      23.618  -1.068  32.382  0.00  0.00     0.126 C 
ENDBRANCH  11  12
ENDBRANCH   8  11
ENDBRANCH   1   8
TORSDOF 3
ENDMDL
MODEL 4
REMARK VINA RESULT:     0.000     44.883     45.868
REMARK INTER + INTRA:           9.216
REMARK INTER:                   0.000
REMARK INTRA:                   9.216
REMARK UNBOUND:                 9.216
REMARK  3 active torsions:
REMARK  status: ('A' for Active; 'I' for Inactive)
REMARK    1  A    between atoms: O_1  and  C_4 
REMARK    2  A    between atoms: O_1  and  C_13 
REMARK    3  A    between atoms: C_3  and  C_4 
ROOT
ATOM      1  C   UNL d   1     -11.274   8.066  25.719  0.00  0.00     0.024 A 
ATOM      2  C   UNL d   1     -11.994   7.897  25.046  0.00  0.00     0.012 A 
ATOM      3  C   UNL d   1     -10.316   8.087  25.432  0.00  0.00     0.035 A 
ATOM      4  C   UNL d   1     -11.756   7.749  24.086  0.00  0.00     0.034 A 
ATOM      5  C   UNL d   1     -10.798   7.770  23.799  0.00  0.00    -0.087 A 
ATOM      6  C   UNL d   1     -10.078   7.939  24.473  0.00  0.00    -0.024 A 
ATOM      7  C   UNL d   1     -10.559   7.622  22.839  0.00  0.00     0.043 C 
ENDROOT
BRANCH   1   8
ATOM      8  C   UNL d   1     -11.512   8.215  26.679  0.00  0.00     0.067 C 
ATOM      9  C   UNL d   1     -11.440   7.232  26.848  0.00  0.00     0.047 C 
ATOM     10  C   UNL d   1     -11.585   9.197  26.509  0.00  0.00     0.047 C 
BRANCH   8  11
ATOM     11  O   UNL d   1     -11.750   8.363  27.639  0.00  0.00    -0.311 OA
BRANCH  11  12
ATOM     12  C   UNL d   1     -11.031   8.407  28.331  0.00  0.00     0.255 C 
ATOM     13  O   UNL d   1     -10.453   9.220  28.400  0.00  0.00    -0.266 OA
ATOM     14  C   UNL d   1     -10.889   7.638  28.955  0.00  0.00     0.126 C 
ENDBRANCH  11  12
ENDBRANCH   8  11
ENDBRANCH   1   8
TORSDOF 3
ENDMDL
MODEL 5
REMARK VINA RESULT:     0.009     34.174     35.016
REMARK INTER + INTRA:           9.227
REMARK INTER:                   0.000
REMARK INTRA:                   9.227
REMARK UNBOUND:                 9.216
REMARK  3 active torsions:
REMARK  status: ('A' for Active; 'I' for Inactive)
REMARK    1  A    between atoms: O_1  and  C_4 
REMARK    2  A    between atoms: O_1  and  C_13 
REMARK    3  A    between atoms: C_3  and  C_4 
ROOT
ATOM      1  C   UNL d   1       4.218 -12.202 -14.273  0.00  0.00     0.024 A 
ATOM      2  C   UNL d   1       4.926 -12.548 -14.889  0.00  0.00     0.012 A 
ATOM      3  C   UNL d   1       3.564 -11.518 -14.596  0.00  0.00     0.035 A 
ATOM      4  C   UNL d   1       4.980 -12.209 -15.828  0.00  0.00     0.034 A 
ATOM      5  C   UNL d   1       4.326 -11.525 -16.152  0.00  0.00    -0.087 A 
ATOM      6  C   UNL d   1       3.619 -11.179 -15.536  0.00  0.00    -0.024 A 
ATOM      7  C   UNL d   1       4.381 -11.186 -17.091  0.00  0.00     0.043 C 
ENDROOT
BRANCH   1   8
ATOM      8  C   UNL d   1       4.164 -12.541 -13.334  0.00  0.00     0.067 C 
ATOM      9  C   UNL d   1       4.780 -11.812 -13.035  0.00  0.00     0.047 C 
ATOM     10  C   UNL d   1       3.548 -13.270 -13.632  0.00  0.00     0.047 C 
BRANCH   8  11
ATOM     11  O   UNL d   1       4.109 -12.880 -12.394  0.00  0.00    -0.311 OA
BRANCH  11  12
ATOM     12  C   UNL d   1       3.488 -12.447 -11.742  0.00  0.00     0.255 C 
ATOM     13  O   UNL d   1       2.503 -12.608 -11.806  0.00  0.00    -0.266 OA
ATOM     14  C   UNL d   1       3.852 -11.852 -11.024  0.00  0.00     0.126 C 
ENDBRANCH  11  12
ENDBRANCH   8  11
ENDBRANCH   1   8
TORSDOF 3
ENDMDL
