MODEL 1
REMARK VINA RESULT:   -15.767      0.000      0.000
REMARK INTER + INTRA:         -16.228
REMARK INTER:                 -16.228
REMARK INTRA:                   0.000
REMARK UNBOUND:                 0.000
REMARK  1 active torsions:
REMARK  status: ('A' for Active; 'I' for Inactive)
REMARK    1  A    between atoms: C_19  and  O_1 
ROOT
ATOM      1  C   UNL d   1       7.938  23.427 -18.792  0.00  0.00    -0.028 A 
ATOM      2  C   UNL d   1       8.594  24.160 -18.973  0.00  0.00     0.007 A 
ATOM      3  C   UNL d   1       9.165  24.164 -19.844  0.00  0.00    -0.035 A 
ATOM      4  C   UNL d   1       7.397  23.437 -17.951  0.00  0.00    -0.013 A 
ATOM      5  C   UNL d   1       9.051  23.394 -20.536  0.00  0.00     0.004 A 
ATOM      6  C   UNL d   1       7.807  22.647 -19.470  0.00  0.00     0.011 A 
ATOM      7  C   UNL d   1       7.511  24.180 -17.291  0.00  0.00    -0.070 A 
ATOM      8  C   UNL d   1       8.368  22.631 -20.348  0.00  0.00     0.007 A 
ATOM      9  C   UNL d   1       6.954  24.204 -16.411  0.00  0.00     0.024 A 
ATOM     10  C   UNL d   1       9.635  23.376 -21.451  0.00  0.00    -0.017 A 
ATOM     11  C   UNL d   1       6.269  23.444 -16.216  0.00  0.00    -0.036 A 
ATOM     12  C   UNL d   1       6.717  22.667 -17.777  0.00  0.00     0.015 A 
ATOM     13  C   UNL d   1       8.709  24.903 -18.313  0.00  0.00     0.033 A 
ATOM     14  C   UNL d   1       9.870  24.969 -20.018  0.00  0.00     0.012 A 
ATOM     15  C   UNL d   1       6.150  22.670 -16.904  0.00  0.00     0.011 A 
ATOM     16  C   UNL d   1       7.406  22.590 -18.918  0.00  0.00     0.016 C 
ATOM     17  C   UNL d   1       8.167  24.912 -17.472  0.00  0.00    -0.022 A 
ATOM     18  C   UNL d   1      10.346  24.171 -21.647  0.00  0.00     0.126 A 
ATOM     19  C   UNL d   1       9.274  24.903 -19.179  0.00  0.00     0.016 C 
ATOM     20  C   UNL d   1       7.052  22.596 -18.370  0.00  0.00     0.021 C 
ATOM     21  C   UNL d   1      10.465  24.973 -20.926  0.00  0.00     0.033 A 
ATOM     22  C   UNL d   1       7.096  25.019 -15.710  0.00  0.00     0.018 A 
ATOM     23  C   UNL d   1       5.678  23.447 -15.306  0.00  0.00     0.010 A 
ATOM     24  C   UNL d   1       6.516  25.044 -14.794  0.00  0.00    -0.047 A 
ATOM     25  C   UNL d   1       5.802  24.253 -14.590  0.00  0.00     0.009 A 
ATOM     26  C   UNL d   1       9.879  22.939 -22.316  0.00  0.00     0.018 C 
ATOM     27  C   UNL d   1       9.188  22.524 -21.724  0.00  0.00     0.018 C 
ATOM     28  C   UNL d   1       5.611  22.715 -16.028  0.00  0.00     0.016 C 
ATOM     29  C   UNL d   1       6.277  25.487 -13.929  0.00  0.00     0.015 C 
ATOM     30  C   UNL d   1       6.967  25.895 -14.527  0.00  0.00     0.015 C 
ENDROOT
BRANCH  18  31
ATOM     31  O   UNL d   1      10.890  24.165 -22.486  0.00  0.00    -0.395 OA
ATOM     32  H   UNL d   1      11.174  23.645 -22.668  0.00  0.00     0.210 HD
ENDBRANCH  18  31
TORSDOF 1
ENDMDL
MODEL 2
REMARK VINA RESULT:   -15.543      0.641      2.284
REMARK INTER + INTRA:         -15.997
REMARK INTER:                 -15.997
REMARK INTRA:                   0.000
REMARK UNBOUND:                 0.000
REMARK  1 active torsions:
REMARK  status: ('A' for Active; 'I' for Inactive)
REMARK    1  A    between atoms: C_19  and  O_1 
ROOT
ATOM      1  C   UNL d   1       8.354  24.204 -18.696  0.00  0.00    -0.028 A 
ATOM      2  C   UNL d   1       8.317  23.383 -19.265  0.00  0.00     0.007 A 
ATOM      3  C   UNL d   1       8.838  23.334 -20.166  0.00  0.00    -0.035 A 
ATOM      4  C   UNL d   1       7.848  24.238 -17.833  0.00  0.00    -0.013 A 
ATOM      5  C   UNL d   1       9.405  24.149 -20.477  0.00  0.00     0.004 A 
ATOM      6  C   UNL d   1       8.915  25.033 -18.987  0.00  0.00     0.011 A 
ATOM      7  C   UNL d   1       7.306  23.451 -17.541  0.00  0.00    -0.070 A 
ATOM      8  C   UNL d   1       9.444  25.005 -19.884  0.00  0.00     0.007 A 
ATOM      9  C   UNL d   1       6.774  23.471 -16.645  0.00  0.00     0.024 A 
ATOM     10  C   UNL d   1       9.957  24.120 -21.411  0.00  0.00    -0.017 A 
ATOM     11  C   UNL d   1       6.808  24.322 -16.047  0.00  0.00    -0.036 A 
ATOM     12  C   UNL d   1       7.897  25.101 -17.251  0.00  0.00     0.015 A 
ATOM     13  C   UNL d   1       7.774  22.596 -18.973  0.00  0.00     0.033 A 
ATOM     14  C   UNL d   1       8.783  22.432 -20.767  0.00  0.00     0.012 A 
ATOM     15  C   UNL d   1       7.373  25.143 -16.352  0.00  0.00     0.011 A 
ATOM     16  C   UNL d   1       8.596  25.125 -18.388  0.00  0.00     0.016 C 
ATOM     17  C   UNL d   1       7.269  22.630 -18.111  0.00  0.00    -0.022 A 
ATOM     18  C   UNL d   1       9.916  23.230 -22.029  0.00  0.00     0.126 A 
ATOM     19  C   UNL d   1       8.293  22.550 -19.867  0.00  0.00     0.016 C 
ATOM     20  C   UNL d   1       8.266  25.147 -17.826  0.00  0.00     0.021 C 
ATOM     21  C   UNL d   1       9.325  22.380 -21.705  0.00  0.00     0.033 A 
ATOM     22  C   UNL d   1       6.192  22.605 -16.349  0.00  0.00     0.018 A 
ATOM     23  C   UNL d   1       6.262  24.367 -15.110  0.00  0.00     0.010 A 
ATOM     24  C   UNL d   1       5.638  22.626 -15.416  0.00  0.00    -0.047 A 
ATOM     25  C   UNL d   1       5.673  23.513 -14.793  0.00  0.00     0.009 A 
ATOM     26  C   UNL d   1      10.562  24.559 -22.075  0.00  0.00     0.018 C 
ATOM     27  C   UNL d   1      10.289  25.049 -21.248  0.00  0.00     0.018 C 
ATOM     28  C   UNL d   1       6.840  25.140 -15.472  0.00  0.00     0.016 C 
ATOM     29  C   UNL d   1       5.032  22.181 -14.756  0.00  0.00     0.015 C 
ATOM     30  C   UNL d   1       5.309  21.697 -15.587  0.00  0.00     0.015 C 
ENDROOT
BRANCH  18  31
ATOM     31  O   UNL d   1      10.420  23.193 -22.892  0.00  0.00    -0.395 OA
ATOM     32  H   UNL d   1      10.805  22.720 -23.006  0.00  0.00     0.210 HD
ENDBRANCH  18  31
TORSDOF 1
ENDMDL
MODEL 3
REMARK VINA RESULT:   -15.209      1.942      6.020
REMARK INTER + INTRA:         -15.654
REMARK INTER:                 -15.654
REMARK INTRA:                   0.000
REMARK UNBOUND:                 0.000
REMARK  1 active torsions:
REMARK  status: ('A' for Active; 'I' for Inactive)
REMARK    1  A    between atoms: C_19  and  O_1 
ROOT
ATOM      1  C   UNL d   1       7.857  23.868 -18.089  0.00  0.00    -0.028 A 
ATOM      2  C   UNL d   1       7.216  23.104 -18.162  0.00  0.00     0.007 A 
ATOM      3  C   UNL d   1       6.552  22.887 -17.389  0.00  0.00    -0.035 A 
ATOM      4  C   UNL d   1       8.489  24.065 -18.839  0.00  0.00    -0.013 A 
ATOM      5  C   UNL d   1       6.557  23.473 -16.529  0.00  0.00     0.004 A 
ATOM      6  C   UNL d   1       7.880  24.468 -17.237  0.00  0.00     0.011 A 
ATOM      7  C   UNL d   1       8.478  23.497 -19.663  0.00  0.00    -0.070 A 
ATOM      8  C   UNL d   1       7.225  24.269 -16.452  0.00  0.00     0.007 A 
ATOM      9  C   UNL d   1       9.130  23.690 -20.453  0.00  0.00     0.024 A 
ATOM     10  C   UNL d   1       5.875  23.266 -15.710  0.00  0.00    -0.017 A 
ATOM     11  C   UNL d   1       9.801  24.483 -20.383  0.00  0.00    -0.036 A 
ATOM     12  C   UNL d   1       9.151  24.864 -18.748  0.00  0.00     0.015 A 
ATOM     13  C   UNL d   1       7.206  22.537 -18.986  0.00  0.00     0.033 A 
ATOM     14  C   UNL d   1       5.865  22.054 -17.492  0.00  0.00     0.012 A 
ATOM     15  C   UNL d   1       9.812  25.074 -19.525  0.00  0.00     0.011 A 
ATOM     16  C   UNL d   1       8.338  24.659 -17.709  0.00  0.00     0.016 C 
ATOM     17  C   UNL d   1       7.837  22.734 -19.736  0.00  0.00    -0.022 A 
ATOM     18  C   UNL d   1       5.179  22.438 -15.790  0.00  0.00     0.126 A 
ATOM     19  C   UNL d   1       6.548  22.325 -18.216  0.00  0.00     0.016 C 
ATOM     20  C   UNL d   1       8.749  24.787 -18.199  0.00  0.00     0.021 C 
ATOM     21  C   UNL d   1       5.174  21.828 -16.686  0.00  0.00     0.033 A 
ATOM     22  C   UNL d   1       9.101  23.061 -21.336  0.00  0.00     0.018 A 
ATOM     23  C   UNL d   1      10.489  24.703 -21.193  0.00  0.00     0.010 A 
ATOM     24  C   UNL d   1       9.779  23.261 -22.158  0.00  0.00    -0.047 A 
ATOM     25  C   UNL d   1      10.478  24.088 -22.086  0.00  0.00     0.009 A 
ATOM     26  C   UNL d   1       5.519  23.484 -14.801  0.00  0.00     0.018 C 
ATOM     27  C   UNL d   1       6.254  24.036 -15.195  0.00  0.00     0.018 C 
ATOM     28  C   UNL d   1      10.445  25.245 -20.317  0.00  0.00     0.016 C 
ATOM     29  C   UNL d   1      10.130  23.039 -23.068  0.00  0.00     0.015 C 
ATOM     30  C   UNL d   1       9.396  22.491 -22.667  0.00  0.00     0.015 C 
ENDROOT
BRANCH  18  31
ATOM     31  O   UNL d   1       4.546  22.238 -15.042  0.00  0.00    -0.395 OA
ATOM     32  H   UNL d   1       3.972  22.473 -15.050  0.00  0.00     0.210 HD
ENDBRANCH  18  31
TORSDOF 1
ENDMDL
MODEL 4
REMARK VINA RESULT:   -14.374     26.675     28.218
REMARK INTER + INTRA:         -14.794
REMARK INTER:                 -14.794
REMARK INTRA:                   0.000
REMARK UNBOUND:                 0.000
REMARK  1 active torsions:
REMARK  status: ('A' for Active; 'I' for Inactive)
REMARK    1  A    between atoms: C_19  and  O_1 
ROOT
ATOM      1  C   UNL d   1     -11.634   6.983 -28.636  0.00  0.00    -0.028 A 
ATOM      2  C   UNL d   1     -11.759   7.276 -27.688  0.00  0.00     0.007 A 
ATOM      3  C   UNL d   1     -12.219   8.184 -27.465  0.00  0.00    -0.035 A 
ATOM      4  C   UNL d   1     -11.191   6.109 -28.834  0.00  0.00    -0.013 A 
ATOM      5  C   UNL d   1     -12.552   8.794 -28.240  0.00  0.00     0.004 A 
ATOM      6  C   UNL d   1     -11.960   7.578 -29.427  0.00  0.00     0.011 A 
ATOM      7  C   UNL d   1     -10.873   5.527 -28.085  0.00  0.00    -0.070 A 
ATOM      8  C   UNL d   1     -12.422   8.489 -29.227  0.00  0.00     0.007 A 
ATOM      9  C   UNL d   1     -10.410   4.614 -28.276  0.00  0.00     0.024 A 
ATOM     10  C   UNL d   1     -13.034   9.745 -28.032  0.00  0.00    -0.017 A 
ATOM     11  C   UNL d   1     -10.276   4.302 -29.261  0.00  0.00    -0.036 A 
ATOM     12  C   UNL d   1     -11.067   5.817 -29.827  0.00  0.00     0.015 A 
ATOM     13  C   UNL d   1     -11.442   6.695 -26.938  0.00  0.00     0.033 A 
ATOM     14  C   UNL d   1     -12.344   8.481 -26.429  0.00  0.00     0.012 A 
ATOM     15  C   UNL d   1     -10.607   4.908 -30.041  0.00  0.00     0.011 A 
ATOM     16  C   UNL d   1     -11.666   6.995 -29.635  0.00  0.00     0.016 C 
ATOM     17  C   UNL d   1     -10.999   5.820 -27.137  0.00  0.00    -0.022 A 
ATOM     18  C   UNL d   1     -13.170  10.062 -27.005  0.00  0.00     0.126 A 
ATOM     19  C   UNL d   1     -11.899   7.597 -26.721  0.00  0.00     0.016 C 
ATOM     20  C   UNL d   1     -11.377   6.425 -29.765  0.00  0.00     0.021 C 
ATOM     21  C   UNL d   1     -12.823   9.426 -26.197  0.00  0.00     0.033 A 
ATOM     22  C   UNL d   1     -10.074   4.001 -27.447  0.00  0.00     0.018 A 
ATOM     23  C   UNL d   1      -9.796   3.355 -29.485  0.00  0.00     0.010 A 
ATOM     24  C   UNL d   1      -9.591   3.050 -27.646  0.00  0.00    -0.047 A 
ATOM     25  C   UNL d   1      -9.452   2.725 -28.672  0.00  0.00     0.009 A 
ATOM     26  C   UNL d   1     -13.473  10.583 -28.354  0.00  0.00     0.018 C 
ATOM     27  C   UNL d   1     -13.143   9.907 -29.013  0.00  0.00     0.018 C 
ATOM     28  C   UNL d   1     -10.147   4.002 -30.206  0.00  0.00     0.016 C 
ATOM     29  C   UNL d   1      -9.154   2.213 -27.317  0.00  0.00     0.015 C 
ATOM     30  C   UNL d   1      -9.486   2.894 -26.664  0.00  0.00     0.015 C 
ENDROOT
BRANCH  18  31
ATOM     31  O   UNL d   1     -13.613  10.936 -26.802  0.00  0.00    -0.395 OA
ATOM     32  H   UNL d   1     -13.546  11.415 -27.190  0.00  0.00     0.210 HD
ENDBRANCH  18  31
TORSDOF 1
ENDMDL
MODEL 5
REMARK VINA RESULT:   -14.263     46.436     49.406
REMARK INTER + INTRA:         -14.680
REMARK INTER:                 -14.680
REMARK INTRA:                   0.000
REMARK UNBOUND:                 0.000
REMARK  1 active torsions:
REMARK  status: ('A' for Active; 'I' for Inactive)
REMARK    1  A    between atoms: C_19  and  O_1 
ROOT
ATOM      1  C   UNL d   1     -28.663  -6.409  -5.355  0.00  0.00    -0.028 A 
ATOM      2  C   UNL d   1     -28.990  -6.739  -4.470  0.00  0.00     0.007 A 
ATOM      3  C   UNL d   1     -30.009  -6.771  -4.255  0.00  0.00    -0.035 A 
ATOM      4  C   UNL d   1     -27.682  -6.384  -5.548  0.00  0.00    -0.013 A 
ATOM      5  C   UNL d   1     -30.695  -6.455  -4.971  0.00  0.00     0.004 A 
ATOM      6  C   UNL d   1     -29.332  -6.089  -6.087  0.00  0.00     0.011 A 
ATOM      7  C   UNL d   1     -27.028  -6.689  -4.855  0.00  0.00    -0.070 A 
ATOM      8  C   UNL d   1     -30.354  -6.112  -5.893  0.00  0.00     0.007 A 
ATOM      9  C   UNL d   1     -26.003  -6.669  -5.041  0.00  0.00     0.024 A 
ATOM     10  C   UNL d   1     -31.762  -6.479  -4.769  0.00  0.00    -0.017 A 
ATOM     11  C   UNL d   1     -25.655  -6.327  -5.961  0.00  0.00    -0.036 A 
ATOM     12  C   UNL d   1     -27.356  -6.039  -6.475  0.00  0.00     0.015 A 
ATOM     13  C   UNL d   1     -28.337  -7.043  -3.777  0.00  0.00     0.033 A 
ATOM     14  C   UNL d   1     -30.340  -7.132  -3.287  0.00  0.00     0.012 A 
ATOM     15  C   UNL d   1     -26.336  -6.010  -6.683  0.00  0.00     0.011 A 
ATOM     16  C   UNL d   1     -28.678  -6.045  -6.286  0.00  0.00     0.016 C 
ATOM     17  C   UNL d   1     -27.356  -7.018  -3.970  0.00  0.00    -0.022 A 
ATOM     18  C   UNL d   1     -32.117  -6.836  -3.809  0.00  0.00     0.126 A 
ATOM     19  C   UNL d   1     -29.349  -7.073  -3.567  0.00  0.00     0.016 C 
ATOM     20  C   UNL d   1     -28.038  -6.028  -6.412  0.00  0.00     0.021 C 
ATOM     21  C   UNL d   1     -31.402  -7.165  -3.062  0.00  0.00     0.033 A 
ATOM     22  C   UNL d   1     -25.314  -7.004  -4.274  0.00  0.00     0.018 A 
ATOM     23  C   UNL d   1     -24.592  -6.297  -6.178  0.00  0.00     0.010 A 
ATOM     24  C   UNL d   1     -24.246  -6.983  -4.468  0.00  0.00    -0.047 A 
ATOM     25  C   UNL d   1     -23.883  -6.627  -5.426  0.00  0.00     0.009 A 
ATOM     26  C   UNL d   1     -32.704  -6.316  -5.062  0.00  0.00     0.018 C 
ATOM     27  C   UNL d   1     -31.946  -6.113  -5.682  0.00  0.00     0.018 C 
ATOM     28  C   UNL d   1     -25.320  -5.999  -6.844  0.00  0.00     0.016 C 
ATOM     29  C   UNL d   1     -23.306  -7.148  -4.169  0.00  0.00     0.015 C 
ATOM     30  C   UNL d   1     -24.070  -7.349  -3.555  0.00  0.00     0.015 C 
ENDROOT
BRANCH  18  31
ATOM     31  O   UNL d   1     -33.097  -6.863  -3.612  0.00  0.00    -0.395 OA
ATOM     32  H   UNL d   1     -33.477  -7.194  -3.974  0.00  0.00     0.210 HD
ENDBRANCH  18  31
TORSDOF 1
ENDMDL
