MODEL 1
REMARK VINA RESULT:    -0.010      0.000      0.000
REMARK INTER + INTRA:          11.965
REMARK INTER:                   0.000
REMARK INTRA:                  11.965
REMARK UNBOUND:                11.978
REMARK  7 active torsions:
REMARK  status: ('A' for Active; 'I' for Inactive)
REMARK    1  A    between atoms: C_21  and  O_1 
REMARK    2  A    between atoms: C_6  and  C_15 
REMARK    3  A    between atoms: C_15  and  C_23 
REMARK    4  A    between atoms: C_23  and  C_24 
REMARK    5  A    between atoms: C_24  and  C_25 
REMARK    6  A    between atoms: C_25  and  C_26 
REMARK    7  A    between atoms: C_25  and  C_27 
ROOT
ATOM      1  C   UNL d   1       7.164   5.242 -13.998  0.00  0.00    -0.036 A 
ATOM      2  C   UNL d   1       8.002   5.612 -14.398  0.00  0.00    -0.001 A 
ATOM      3  C   UNL d   1       8.070   5.741 -15.387  0.00  0.00    -0.001 A 
ATOM      4  C   UNL d   1       7.299   5.500 -15.977  0.00  0.00     0.003 A 
ATOM      5  C   UNL d   1       7.293   5.190 -13.014  0.00  0.00     0.001 A 
ATOM      6  C   UNL d   1       6.393   5.001 -14.588  0.00  0.00     0.010 A 
ATOM      7  C   UNL d   1       7.355   5.629 -17.009  0.00  0.00    -0.017 A 
ATOM      8  C   UNL d   1       8.642   5.786 -13.658  0.00  0.00     0.006 A 
ATOM      9  C   UNL d   1       6.461   5.130 -15.577  0.00  0.00     0.007 A 
ATOM     10  C   UNL d   1       8.205   5.526 -12.803  0.00  0.00     0.006 A 
ATOM     11  C   UNL d   1       8.950   6.128 -15.789  0.00  0.00     0.033 A 
ATOM     12  C   UNL d   1       6.326   4.871 -13.598  0.00  0.00     0.016 C 
ATOM     13  C   UNL d   1       8.225   6.015 -17.433  0.00  0.00    -0.072 A 
ATOM     14  C   UNL d   1       6.505   5.361 -17.629  0.00  0.00     0.016 A 
ATOM     15  C   UNL d   1       9.028   6.266 -16.819  0.00  0.00    -0.023 A 
ATOM     16  C   UNL d   1       6.520   5.259 -16.602  0.00  0.00     0.020 C 
ATOM     17  C   UNL d   1       8.306   6.158 -18.506  0.00  0.00     0.066 A 
ATOM     18  C   UNL d   1       6.563   5.495 -18.704  0.00  0.00     0.033 A 
ATOM     19  C   UNL d   1       7.470   5.896 -19.145  0.00  0.00     0.122 A 
ENDROOT
BRANCH   5  20
ATOM     20  C   UNL d   1       6.622   4.858 -12.351  0.00  0.00     0.008 C 
ATOM     21  C   UNL d   1       5.935   5.483 -11.979  0.00  0.00     0.014 C 
BRANCH  20  22
ATOM     22  C   UNL d   1       6.638   3.902 -12.059  0.00  0.00    -0.026 C 
BRANCH  22  23
ATOM     23  C   UNL d   1       6.565   3.674 -11.088  0.00  0.00    -0.025 C 
BRANCH  23  24
ATOM     24  C   UNL d   1       6.842   2.770 -10.764  0.00  0.00     0.011 C 
BRANCH  24  25
ATOM     25  C   UNL d   1       7.680   2.664 -10.231  0.00  0.00    -0.015 C 
ATOM     26  C   UNL d   1       8.429   2.103 -10.582  0.00  0.00     0.010 C 
ATOM     27  C   UNL d   1       7.770   3.120  -9.344  0.00  0.00     0.010 C 
ENDBRANCH  24  25
BRANCH  24  28
ATOM     28  C   UNL d   1       6.279   1.970 -10.975  0.00  0.00     0.004 C 
ATOM     29  C   UNL d   1       5.348   1.904 -10.612  0.00  0.00     0.006 C 
ENDBRANCH  24  28
ENDBRANCH  23  24
ENDBRANCH  22  23
ENDBRANCH  20  22
ENDBRANCH   5  20
BRANCH  19  30
ATOM     30  O   UNL d   1       7.534   6.024 -20.135  0.00  0.00    -0.395 OA
ATOM     31  H   UNL d   1       7.876   6.487 -20.366  0.00  0.00     0.210 HD
ENDBRANCH  19  30
TORSDOF 7
ENDMDL
MODEL 2
REMARK VINA RESULT:    -0.010     27.499     30.914
REMARK INTER + INTRA:          11.965
REMARK INTER:                   0.000
REMARK INTRA:                  11.965
REMARK UNBOUND:                11.978
REMARK  7 active torsions:
REMARK  status: ('A' for Active; 'I' for Inactive)
REMARK    1  A    between atoms: C_21  and  O_1 
REMARK    2  A    between atoms: C_6  and  C_15 
REMARK    3  A    between atoms: C_15  and  C_23 
REMARK    4  A    between atoms: C_23  and  C_24 
REMARK    5  A    between atoms: C_24  and  C_25 
REMARK    6  A    between atoms: C_25  and  C_26 
REMARK    7  A    between atoms: C_25  and  C_27 
ROOT
ATOM      1  C   UNL d   1      16.075  16.484  12.986  0.00  0.00    -0.036 A 
ATOM      2  C   UNL d   1      15.360  17.123  13.272  0.00  0.00    -0.001 A 
ATOM      3  C   UNL d   1      14.545  17.247  12.706  0.00  0.00    -0.001 A 
ATOM      4  C   UNL d   1      14.445  16.733  11.854  0.00  0.00     0.003 A 
ATOM      5  C   UNL d   1      16.792  16.502  13.674  0.00  0.00     0.001 A 
ATOM      6  C   UNL d   1      15.974  15.970  12.134  0.00  0.00     0.010 A 
ATOM      7  C   UNL d   1      13.602  16.852  11.254  0.00  0.00    -0.017 A 
ATOM      8  C   UNL d   1      15.642  17.530  14.133  0.00  0.00     0.006 A 
ATOM      9  C   UNL d   1      15.159  16.094  11.568  0.00  0.00     0.007 A 
ATOM     10  C   UNL d   1      16.526  17.147  14.382  0.00  0.00     0.006 A 
ATOM     11  C   UNL d   1      13.809  17.916  13.016  0.00  0.00     0.033 A 
ATOM     12  C   UNL d   1      16.789  15.845  12.701  0.00  0.00     0.016 C 
ATOM     13  C   UNL d   1      12.853  17.516  11.545  0.00  0.00    -0.072 A 
ATOM     14  C   UNL d   1      13.515  16.283  10.334  0.00  0.00     0.016 A 
ATOM     15  C   UNL d   1      12.958  18.052  12.432  0.00  0.00    -0.023 A 
ATOM     16  C   UNL d   1      14.321  16.215  10.975  0.00  0.00     0.020 C 
ATOM     17  C   UNL d   1      11.966  17.657  10.936  0.00  0.00     0.066 A 
ATOM     18  C   UNL d   1      12.637  16.408   9.708  0.00  0.00     0.033 A 
ATOM     19  C   UNL d   1      11.858  17.099  10.012  0.00  0.00     0.122 A 
ENDROOT
BRANCH   5  20
ATOM     20  C   UNL d   1      17.635  15.965  13.657  0.00  0.00     0.008 C 
ATOM     21  C   UNL d   1      18.437  16.308  13.167  0.00  0.00     0.014 C 
BRANCH  20  22
ATOM     22  C   UNL d   1      17.677  15.085  14.129  0.00  0.00    -0.026 C 
BRANCH  22  23
ATOM     23  C   UNL d   1      18.462  14.866  14.710  0.00  0.00    -0.025 C 
BRANCH  23  24
ATOM     24  C   UNL d   1      18.396  14.128  15.382  0.00  0.00     0.011 C 
BRANCH  24  25
ATOM     25  C   UNL d   1      18.346  14.342  16.357  0.00  0.00    -0.015 C 
ATOM     26  C   UNL d   1      17.539  14.081  16.885  0.00  0.00     0.010 C 
ATOM     27  C   UNL d   1      19.105  14.818  16.804  0.00  0.00     0.010 C 
ENDBRANCH  24  25
BRANCH  24  28
ATOM     28  C   UNL d   1      18.380  13.175  15.077  0.00  0.00     0.004 C 
ATOM     29  C   UNL d   1      19.174  12.787  14.608  0.00  0.00     0.006 C 
ENDBRANCH  24  28
ENDBRANCH  23  24
ENDBRANCH  22  23
ENDBRANCH  20  22
ENDBRANCH   5  20
BRANCH  19  30
ATOM     30  O   UNL d   1      11.044  17.221   9.443  0.00  0.00    -0.395 OA
ATOM     31  H   UNL d   1      10.481  17.229   9.704  0.00  0.00     0.210 HD
ENDBRANCH  19  30
TORSDOF 7
ENDMDL
MODEL 3
REMARK VINA RESULT:    -0.009     31.701     35.011
REMARK INTER + INTRA:          11.965
REMARK INTER:                   0.000
REMARK INTRA:                  11.965
REMARK UNBOUND:                11.978
REMARK  7 active torsions:
REMARK  status: ('A' for Active; 'I' for Inactive)
REMARK    1  A    between atoms: C_21  and  O_1 
REMARK    2  A    between atoms: C_6  and  C_15 
REMARK    3  A    between atoms: C_15  and  C_23 
REMARK    4  A    between atoms: C_23  and  C_24 
REMARK    5  A    between atoms: C_24  and  C_25 
REMARK    6  A    between atoms: C_25  and  C_26 
REMARK    7  A    between atoms: C_25  and  C_27 
ROOT
ATOM      1  C   UNL d   1       3.380  21.400  15.932  0.00  0.00    -0.036 A 
ATOM      2  C   UNL d   1       4.333  21.096  15.966  0.00  0.00    -0.001 A 
ATOM      3  C   UNL d   1       4.627  20.455  16.674  0.00  0.00    -0.001 A 
ATOM      4  C   UNL d   1       3.970  20.117  17.348  0.00  0.00     0.003 A 
ATOM      5  C   UNL d   1       3.289  22.027  15.167  0.00  0.00     0.001 A 
ATOM      6  C   UNL d   1       2.723  21.062  16.606  0.00  0.00     0.010 A 
ATOM      7  C   UNL d   1       4.263  19.448  18.091  0.00  0.00    -0.017 A 
ATOM      8  C   UNL d   1       4.821  21.539  15.222  0.00  0.00     0.006 A 
ATOM      9  C   UNL d   1       3.018  20.421  17.314  0.00  0.00     0.007 A 
ATOM     10  C   UNL d   1       4.177  22.113  14.729  0.00  0.00     0.006 A 
ATOM     11  C   UNL d   1       5.623  20.147  16.697  0.00  0.00     0.033 A 
ATOM     12  C   UNL d   1       2.428  21.704  15.898  0.00  0.00     0.016 C 
ATOM     13  C   UNL d   1       5.253  19.127  18.134  0.00  0.00    -0.072 A 
ATOM     14  C   UNL d   1       3.532  19.095  18.812  0.00  0.00     0.016 A 
ATOM     15  C   UNL d   1       5.938  19.479  17.432  0.00  0.00    -0.023 A 
ATOM     16  C   UNL d   1       3.312  19.756  18.051  0.00  0.00     0.020 C 
ATOM     17  C   UNL d   1       5.581  18.431  18.899  0.00  0.00     0.066 A 
ATOM     18  C   UNL d   1       3.836  18.399  19.586  0.00  0.00     0.033 A 
ATOM     19  C   UNL d   1       4.867  18.065  19.630  0.00  0.00     0.122 A 
ENDROOT
BRANCH   5  20
ATOM     20  C   UNL d   1       2.448  22.492  14.886  0.00  0.00     0.008 C 
ATOM     21  C   UNL d   1       2.193  23.361  15.310  0.00  0.00     0.014 C 
BRANCH  20  22
ATOM     22  C   UNL d   1       1.865  22.088  14.183  0.00  0.00    -0.026 C 
BRANCH  22  23
ATOM     23  C   UNL d   1       1.512  22.656  13.438  0.00  0.00    -0.025 C 
BRANCH  23  24
ATOM     24  C   UNL d   1       1.161  22.228  12.606  0.00  0.00     0.011 C 
BRANCH  24  25
ATOM     25  C   UNL d   1       1.683  22.285  11.756  0.00  0.00    -0.015 C 
ATOM     26  C   UNL d   1       2.022  21.453  11.320  0.00  0.00     0.010 C 
ATOM     27  C   UNL d   1       1.867  23.177  11.341  0.00  0.00     0.010 C 
ENDBRANCH  24  25
BRANCH  24  28
ATOM     28  C   UNL d   1       0.287  21.741  12.624  0.00  0.00     0.004 C 
ATOM     29  C   UNL d   1      -0.558  22.239  12.821  0.00  0.00     0.006 C 
ENDBRANCH  24  28
ENDBRANCH  23  24
ENDBRANCH  22  23
ENDBRANCH  20  22
ENDBRANCH   5  20
BRANCH  19  30
ATOM     30  O   UNL d   1       5.159  17.423  20.339  0.00  0.00    -0.395 OA
ATOM     31  H   UNL d   1       4.738  17.079  20.638  0.00  0.00     0.210 HD
ENDBRANCH  19  30
TORSDOF 7
ENDMDL
MODEL 4
REMARK VINA RESULT:    -0.006     26.936     28.689
REMARK INTER + INTRA:          11.969
REMARK INTER:                   0.000
REMARK INTRA:                  11.969
REMARK UNBOUND:                11.978
REMARK  7 active torsions:
REMARK  status: ('A' for Active; 'I' for Inactive)
REMARK    1  A    between atoms: C_21  and  O_1 
REMARK    2  A    between atoms: C_6  and  C_15 
REMARK    3  A    between atoms: C_15  and  C_23 
REMARK    4  A    between atoms: C_23  and  C_24 
REMARK    5  A    between atoms: C_24  and  C_25 
REMARK    6  A    between atoms: C_25  and  C_26 
REMARK    7  A    between atoms: C_25  and  C_27 
ROOT
ATOM      1  C   UNL d   1      12.318 -16.751   2.382  0.00  0.00    -0.036 A 
ATOM      2  C   UNL d   1      12.853 -16.007   2.783  0.00  0.00    -0.001 A 
ATOM      3  C   UNL d   1      13.777 -16.183   3.122  0.00  0.00    -0.001 A 
ATOM      4  C   UNL d   1      14.166 -17.102   3.060  0.00  0.00     0.003 A 
ATOM      5  C   UNL d   1      11.438 -16.378   2.109  0.00  0.00     0.001 A 
ATOM      6  C   UNL d   1      12.707 -17.670   2.319  0.00  0.00     0.010 A 
ATOM      7  C   UNL d   1      15.127 -17.301   3.409  0.00  0.00    -0.017 A 
ATOM      8  C   UNL d   1      12.299 -15.183   2.755  0.00  0.00     0.006 A 
ATOM      9  C   UNL d   1      13.631 -17.846   2.658  0.00  0.00     0.007 A 
ATOM     10  C   UNL d   1      11.426 -15.412   2.338  0.00  0.00     0.006 A 
ATOM     11  C   UNL d   1      14.323 -15.399   3.538  0.00  0.00     0.033 A 
ATOM     12  C   UNL d   1      11.783 -17.494   1.980  0.00  0.00     0.016 C 
ATOM     13  C   UNL d   1      15.691 -16.532   3.828  0.00  0.00    -0.072 A 
ATOM     14  C   UNL d   1      15.528 -18.306   3.330  0.00  0.00     0.016 A 
ATOM     15  C   UNL d   1      15.286 -15.574   3.893  0.00  0.00    -0.023 A 
ATOM     16  C   UNL d   1      14.586 -18.039   3.006  0.00  0.00     0.020 C 
ATOM     17  C   UNL d   1      16.695 -16.715   4.199  0.00  0.00     0.066 A 
ATOM     18  C   UNL d   1      16.529 -18.513   3.694  0.00  0.00     0.033 A 
ATOM     19  C   UNL d   1      17.116 -17.712   4.130  0.00  0.00     0.122 A 
ENDROOT
BRANCH   5  20
ATOM     20  C   UNL d   1      10.693 -16.888   1.677  0.00  0.00     0.008 C 
ATOM     21  C   UNL d   1      10.675 -17.002   0.684  0.00  0.00     0.014 C 
BRANCH  20  22
ATOM     22  C   UNL d   1       9.967 -17.284   2.239  0.00  0.00    -0.026 C 
BRANCH  22  23
ATOM     23  C   UNL d   1       9.010 -17.169   1.972  0.00  0.00    -0.025 C 
BRANCH  23  24
ATOM     24  C   UNL d   1       8.283 -17.320   2.642  0.00  0.00     0.011 C 
BRANCH  24  25
ATOM     25  C   UNL d   1       7.771 -16.543   3.008  0.00  0.00    -0.015 C 
ATOM     26  C   UNL d   1       7.804 -16.340   3.986  0.00  0.00     0.010 C 
ATOM     27  C   UNL d   1       7.227 -15.969   2.396  0.00  0.00     0.010 C 
ENDBRANCH  24  25
BRANCH  24  28
ATOM     28  C   UNL d   1       8.067 -18.249   2.945  0.00  0.00     0.004 C 
ATOM     29  C   UNL d   1       7.714 -18.918   2.291  0.00  0.00     0.006 C 
ENDBRANCH  24  28
ENDBRANCH  23  24
ENDBRANCH  22  23
ENDBRANCH  20  22
ENDBRANCH   5  20
BRANCH  19  30
ATOM     30  O   UNL d   1      18.040 -17.892   4.469  0.00  0.00    -0.395 OA
ATOM     31  H   UNL d   1      18.394 -17.423   4.669  0.00  0.00     0.210 HD
ENDBRANCH  19  30
TORSDOF 7
ENDMDL
MODEL 5
REMARK VINA RESULT:    -0.006     43.723     47.396
REMARK INTER + INTRA:          11.971
REMARK INTER:                   0.000
REMARK INTRA:                  11.971
REMARK UNBOUND:                11.978
REMARK  7 active torsions:
REMARK  status: ('A' for Active; 'I' for Inactive)
REMARK    1  A    between atoms: C_21  and  O_1 
REMARK    2  A    between atoms: C_6  and  C_15 
REMARK    3  A    between atoms: C_15  and  C_23 
REMARK    4  A    between atoms: C_23  and  C_24 
REMARK    5  A    between atoms: C_24  and  C_25 
REMARK    6  A    between atoms: C_25  and  C_26 
REMARK    7  A    between atoms: C_25  and  C_27 
ROOT
ATOM      1  C   UNL d   1     -30.727 -20.980  -2.547  0.00  0.00    -0.036 A 
ATOM      2  C   UNL d   1     -31.438 -20.436  -2.992  0.00  0.00    -0.001 A 
ATOM      3  C   UNL d   1     -31.198 -19.813  -3.737  0.00  0.00    -0.001 A 
ATOM      4  C   UNL d   1     -30.247 -19.735  -4.037  0.00  0.00     0.003 A 
ATOM      5  C   UNL d   1     -31.162 -21.527  -1.841  0.00  0.00     0.001 A 
ATOM      6  C   UNL d   1     -29.777 -20.901  -2.846  0.00  0.00     0.010 A 
ATOM      7  C   UNL d   1     -29.982 -19.091  -4.812  0.00  0.00    -0.017 A 
ATOM      8  C   UNL d   1     -32.306 -20.652  -2.558  0.00  0.00     0.006 A 
ATOM      9  C   UNL d   1     -29.537 -20.279  -3.591  0.00  0.00     0.007 A 
ATOM     10  C   UNL d   1     -32.135 -21.326  -1.847  0.00  0.00     0.006 A 
ATOM     11  C   UNL d   1     -31.950 -19.253  -4.192  0.00  0.00     0.033 A 
ATOM     12  C   UNL d   1     -30.017 -21.524  -2.101  0.00  0.00     0.016 C 
ATOM     13  C   UNL d   1     -30.718 -18.521  -5.281  0.00  0.00    -0.072 A 
ATOM     14  C   UNL d   1     -28.944 -19.023  -5.120  0.00  0.00     0.016 A 
ATOM     15  C   UNL d   1     -31.708 -18.602  -4.969  0.00  0.00    -0.023 A 
ATOM     16  C   UNL d   1     -29.277 -19.639  -4.361  0.00  0.00     0.020 C 
ATOM     17  C   UNL d   1     -30.465 -17.844  -6.091  0.00  0.00     0.066 A 
ATOM     18  C   UNL d   1     -28.668 -18.353  -5.927  0.00  0.00     0.033 A 
ATOM     19  C   UNL d   1     -29.433 -17.759  -6.415  0.00  0.00     0.122 A 
ENDROOT
BRANCH   5  20
ATOM     20  C   UNL d   1     -30.699 -22.171  -1.229  0.00  0.00     0.008 C 
ATOM     21  C   UNL d   1     -30.290 -21.844  -0.378  0.00  0.00     0.014 C 
BRANCH  20  22
ATOM     22  C   UNL d   1     -30.647 -23.139  -1.470  0.00  0.00    -0.026 C 
BRANCH  22  23
ATOM     23  C   UNL d   1     -30.859 -23.837  -0.785  0.00  0.00    -0.025 C 
BRANCH  23  24
ATOM     24  C   UNL d   1     -31.068 -24.772  -1.071  0.00  0.00     0.011 C 
BRANCH  24  25
ATOM     25  C   UNL d   1     -32.004 -25.116  -1.010  0.00  0.00    -0.015 C 
ATOM     26  C   UNL d   1     -32.490 -25.397  -1.837  0.00  0.00     0.010 C 
ATOM     27  C   UNL d   1     -32.456 -25.180  -0.119  0.00  0.00     0.010 C 
ENDBRANCH  24  25
BRANCH  24  28
ATOM     28  C   UNL d   1     -30.340 -25.362  -1.420  0.00  0.00     0.004 C 
ATOM     29  C   UNL d   1     -29.583 -25.629  -0.822  0.00  0.00     0.006 C 
ENDBRANCH  24  28
ENDBRANCH  23  24
ENDBRANCH  22  23
ENDBRANCH  20  22
ENDBRANCH   5  20
BRANCH  19  30
ATOM     30  O   UNL d   1     -29.190 -17.138  -7.160  0.00  0.00    -0.395 OA
ATOM     31  H   UNL d   1     -29.140 -17.353  -7.740  0.00  0.00     0.210 HD
ENDBRANCH  19  30
TORSDOF 7
ENDMDL
