MODEL 1
REMARK VINA RESULT:    -6.450      0.000      0.000
REMARK INTER + INTRA:          -7.216
REMARK INTER:                  -8.255
REMARK INTRA:                   1.040
REMARK UNBOUND:                 0.930
REMARK  6 active torsions:
REMARK  status: ('A' for Active; 'I' for Inactive)
REMARK    1  A    between atoms: O_1  and  C_8 
REMARK    2  A    between atoms: O_2  and  C_9 
REMARK    3  A    between atoms: O_3  and  C_13 
REMARK    4  A    between atoms: C_5  and  C_11 
REMARK    5  A    between atoms: C_11  and  C_12 
REMARK    6  A    between atoms: C_12  and  C_13 
ROOT
ATOM      1  C   UNL d   1      14.955  26.685  21.567  0.00  0.00    -0.033 A 
ATOM      2  C   UNL d   1      14.431  26.313  22.333  0.00  0.00     0.050 A 
ATOM      3  C   UNL d   1      15.363  26.068  20.894  0.00  0.00     0.014 A 
ATOM      4  C   UNL d   1      14.314  25.324  22.425  0.00  0.00     0.099 A 
ATOM      5  C   UNL d   1      14.722  24.707  21.753  0.00  0.00     0.098 A 
ATOM      6  C   UNL d   1      15.247  25.079  20.987  0.00  0.00     0.040 A 
ENDROOT
BRANCH   1   7
ATOM      7  C   UNL d   1      15.072  27.674  21.474  0.00  0.00     0.018 C 
BRANCH   7   8
ATOM      8  C   UNL d   1      15.189  28.242  22.288  0.00  0.00     0.082 C 
BRANCH   8   9
ATOM      9  C   UNL d   1      15.451  29.202  22.194  0.00  0.00     0.165 C 
ATOM     10  O   UNL d   1      16.413  29.466  22.254  0.00  0.00    -0.647 OA
BRANCH   9  11
ATOM     11  O   UNL d   1      14.750  29.899  22.041  0.00  0.00    -0.773 OA
ATOM     12  H   UNL d   1      14.916  30.481  21.907  0.00  0.00     0.167 HD
ENDBRANCH   9  11
ENDBRANCH   8   9
ENDBRANCH   7   8
ENDBRANCH   1   7
BRANCH   4  13
ATOM     13  O   UNL d   1      13.789  24.952  23.191  0.00  0.00    -0.358 OA
ATOM     14  H   UNL d   1      13.837  24.351  23.337  0.00  0.00     0.217 HD
ENDBRANCH   4  13
BRANCH   5  15
ATOM     15  O   UNL d   1      14.606  23.718  21.845  0.00  0.00    -0.358 OA
ATOM     16  H   UNL d   1      14.816  23.427  22.351  0.00  0.00     0.217 HD
ENDBRANCH   5  15
TORSDOF 6
ENDMDL
MODEL 2
REMARK VINA RESULT:    -6.246     27.409     28.675
REMARK INTER + INTRA:          -6.958
REMARK INTER:                  -7.901
REMARK INTRA:                   0.943
REMARK UNBOUND:                 0.930
REMARK  6 active torsions:
REMARK  status: ('A' for Active; 'I' for Inactive)
REMARK    1  A    between atoms: O_1  and  C_8 
REMARK    2  A    between atoms: O_2  and  C_9 
REMARK    3  A    between atoms: O_3  and  C_13 
REMARK    4  A    between atoms: C_5  and  C_11 
REMARK    5  A    between atoms: C_11  and  C_12 
REMARK    6  A    between atoms: C_12  and  C_13 
ROOT
ATOM      1  C   UNL d   1      37.318  32.419  38.882  0.00  0.00    -0.033 A 
ATOM      2  C   UNL d   1      37.477  32.028  37.976  0.00  0.00     0.050 A 
ATOM      3  C   UNL d   1      38.093  32.648  39.470  0.00  0.00     0.014 A 
ATOM      4  C   UNL d   1      38.411  31.865  37.658  0.00  0.00     0.099 A 
ATOM      5  C   UNL d   1      39.186  32.094  38.246  0.00  0.00     0.098 A 
ATOM      6  C   UNL d   1      39.027  32.486  39.152  0.00  0.00     0.040 A 
ENDROOT
BRANCH   1   7
ATOM      7  C   UNL d   1      36.384  32.582  39.200  0.00  0.00     0.018 C 
BRANCH   7   8
ATOM      8  C   UNL d   1      35.910  33.426  38.949  0.00  0.00     0.082 C 
BRANCH   8   9
ATOM      9  C   UNL d   1      35.042  33.661  39.386  0.00  0.00     0.165 C 
ATOM     10  O   UNL d   1      35.014  34.362  40.097  0.00  0.00    -0.647 OA
BRANCH   9  11
ATOM     11  O   UNL d   1      34.201  33.193  39.111  0.00  0.00    -0.773 OA
ATOM     12  H   UNL d   1      34.221  32.601  38.929  0.00  0.00     0.167 HD
ENDBRANCH   9  11
ENDBRANCH   8   9
ENDBRANCH   7   8
ENDBRANCH   1   7
BRANCH   4  13
ATOM     13  O   UNL d   1      38.569  31.474  36.751  0.00  0.00    -0.358 OA
ATOM     14  H   UNL d   1      39.084  31.618  36.437  0.00  0.00     0.217 HD
ENDBRANCH   4  13
BRANCH   5  15
ATOM     15  O   UNL d   1      40.120  31.932  37.928  0.00  0.00    -0.358 OA
ATOM     16  H   UNL d   1      40.409  32.358  37.583  0.00  0.00     0.217 HD
ENDBRANCH   5  15
TORSDOF 6
ENDMDL
MODEL 3
REMARK VINA RESULT:    -6.222     45.313     47.102
REMARK INTER + INTRA:          -6.928
REMARK INTER:                  -7.953
REMARK INTRA:                   1.025
REMARK UNBOUND:                 0.930
REMARK  6 active torsions:
REMARK  status: ('A' for Active; 'I' for Inactive)
REMARK    1  A    between atoms: O_1  and  C_8 
REMARK    2  A    between atoms: O_2  and  C_9 
REMARK    3  A    between atoms: O_3  and  C_13 
REMARK    4  A    between atoms: C_5  and  C_11 
REMARK    5  A    between atoms: C_11  and  C_12 
REMARK    6  A    between atoms: C_12  and  C_13 
ROOT
ATOM      1  C   UNL d   1      32.481 -17.096  22.156  0.00  0.00    -0.033 A 
ATOM      2  C   UNL d   1      32.374 -16.132  21.910  0.00  0.00     0.050 A 
ATOM      3  C   UNL d   1      32.346 -17.388  23.103  0.00  0.00     0.014 A 
ATOM      4  C   UNL d   1      32.132 -15.461  22.611  0.00  0.00     0.099 A 
ATOM      5  C   UNL d   1      31.997 -15.754  23.558  0.00  0.00     0.098 A 
ATOM      6  C   UNL d   1      32.104 -16.717  23.804  0.00  0.00     0.040 A 
ENDROOT
BRANCH   1   7
ATOM      7  C   UNL d   1      32.723 -17.767  21.455  0.00  0.00     0.018 C 
BRANCH   7   8
ATOM      8  C   UNL d   1      32.024 -18.104  20.824  0.00  0.00     0.082 C 
BRANCH   8   9
ATOM      9  C   UNL d   1      32.294 -18.553  19.973  0.00  0.00     0.165 C 
ATOM     10  O   UNL d   1      32.936 -19.320  19.993  0.00  0.00    -0.647 OA
BRANCH   9  11
ATOM     11  O   UNL d   1      31.924 -18.235  19.100  0.00  0.00    -0.773 OA
ATOM     12  H   UNL d   1      32.000 -17.645  18.927  0.00  0.00     0.167 HD
ENDBRANCH   9  11
ENDBRANCH   8   9
ENDBRANCH   7   8
ENDBRANCH   1   7
BRANCH   4  13
ATOM     13  O   UNL d   1      32.025 -14.498  22.366  0.00  0.00    -0.358 OA
ATOM     14  H   UNL d   1      31.881 -14.081  22.801  0.00  0.00     0.217 HD
ENDBRANCH   4  13
BRANCH   5  15
ATOM     15  O   UNL d   1      31.756 -15.083  24.259  0.00  0.00    -0.358 OA
ATOM     16  H   UNL d   1      31.906 -15.186  24.852  0.00  0.00     0.217 HD
ENDBRANCH   5  15
TORSDOF 6
ENDMDL
MODEL 4
REMARK VINA RESULT:    -6.206     38.477     40.286
REMARK INTER + INTRA:          -6.908
REMARK INTER:                  -7.913
REMARK INTRA:                   1.005
REMARK UNBOUND:                 0.930
REMARK  6 active torsions:
REMARK  status: ('A' for Active; 'I' for Inactive)
REMARK    1  A    between atoms: O_1  and  C_8 
REMARK    2  A    between atoms: O_2  and  C_9 
REMARK    3  A    between atoms: O_3  and  C_13 
REMARK    4  A    between atoms: C_5  and  C_11 
REMARK    5  A    between atoms: C_11  and  C_12 
REMARK    6  A    between atoms: C_12  and  C_13 
ROOT
ATOM      1  C   UNL d   1      22.103 -12.192  15.998  0.00  0.00    -0.033 A 
ATOM      2  C   UNL d   1      22.432 -11.266  15.816  0.00  0.00     0.050 A 
ATOM      3  C   UNL d   1      21.306 -12.545  15.508  0.00  0.00     0.014 A 
ATOM      4  C   UNL d   1      21.964 -10.692  15.143  0.00  0.00     0.099 A 
ATOM      5  C   UNL d   1      21.167 -11.045  14.653  0.00  0.00     0.098 A 
ATOM      6  C   UNL d   1      20.838 -11.971  14.836  0.00  0.00     0.040 A 
ENDROOT
BRANCH   1   7
ATOM      7  C   UNL d   1      22.571 -12.766  16.670  0.00  0.00     0.018 C 
BRANCH   7   8
ATOM      8  C   UNL d   1      23.015 -13.614  16.380  0.00  0.00     0.082 C 
BRANCH   8   9
ATOM      9  C   UNL d   1      23.631 -14.095  17.005  0.00  0.00     0.165 C 
ATOM     10  O   UNL d   1      23.324 -14.328  17.928  0.00  0.00    -0.647 OA
BRANCH   9  11
ATOM     11  O   UNL d   1      24.553 -14.341  16.708  0.00  0.00    -0.773 OA
ATOM     12  H   UNL d   1      25.029 -14.292  17.101  0.00  0.00     0.167 HD
ENDBRANCH   9  11
ENDBRANCH   8   9
ENDBRANCH   7   8
ENDBRANCH   1   7
BRANCH   4  13
ATOM     13  O   UNL d   1      22.294  -9.766  14.961  0.00  0.00    -0.358 OA
ATOM     14  H   UNL d   1      22.091  -9.457  14.463  0.00  0.00     0.217 HD
ENDBRANCH   4  13
BRANCH   5  15
ATOM     15  O   UNL d   1      20.699 -10.471  13.981  0.00  0.00    -0.358 OA
ATOM     16  H   UNL d   1      20.441  -9.935  14.157  0.00  0.00     0.217 HD
ENDBRANCH   5  15
TORSDOF 6
ENDMDL
MODEL 5
REMARK VINA RESULT:    -6.100      1.393      3.885
REMARK INTER + INTRA:          -6.775
REMARK INTER:                  -7.827
REMARK INTRA:                   1.052
REMARK UNBOUND:                 0.930
REMARK  6 active torsions:
REMARK  status: ('A' for Active; 'I' for Inactive)
REMARK    1  A    between atoms: O_1  and  C_8 
REMARK    2  A    between atoms: O_2  and  C_9 
REMARK    3  A    between atoms: O_3  and  C_13 
REMARK    4  A    between atoms: C_5  and  C_11 
REMARK    5  A    between atoms: C_11  and  C_12 
REMARK    6  A    between atoms: C_12  and  C_13 
ROOT
ATOM      1  C   UNL d   1      14.648  26.867  21.721  0.00  0.00    -0.033 A 
ATOM      2  C   UNL d   1      13.676  26.919  21.951  0.00  0.00     0.050 A 
ATOM      3  C   UNL d   1      15.248  27.645  21.907  0.00  0.00     0.014 A 
ATOM      4  C   UNL d   1      13.304  27.749  22.367  0.00  0.00     0.099 A 
ATOM      5  C   UNL d   1      13.904  28.527  22.553  0.00  0.00     0.098 A 
ATOM      6  C   UNL d   1      14.876  28.475  22.323  0.00  0.00     0.040 A 
ENDROOT
BRANCH   1   7
ATOM      7  C   UNL d   1      15.020  26.037  21.306  0.00  0.00     0.018 C 
BRANCH   7   8
ATOM      8  C   UNL d   1      14.876  25.150  21.744  0.00  0.00     0.082 C 
BRANCH   8   9
ATOM      9  C   UNL d   1      15.304  24.330  21.366  0.00  0.00     0.165 C 
ATOM     10  O   UNL d   1      14.800  23.466  21.346  0.00  0.00    -0.647 OA
BRANCH   9  11
ATOM     11  O   UNL d   1      16.237  24.372  21.007  0.00  0.00    -0.773 OA
ATOM     12  H   UNL d   1      16.703  24.118  21.326  0.00  0.00     0.167 HD
ENDBRANCH   9  11
ENDBRANCH   8   9
ENDBRANCH   7   8
ENDBRANCH   1   7
BRANCH   4  13
ATOM     13  O   UNL d   1      12.332  27.800  22.596  0.00  0.00    -0.358 OA
ATOM     14  H   UNL d   1      12.136  28.203  23.025  0.00  0.00     0.217 HD
ENDBRANCH   4  13
BRANCH   5  15
ATOM     15  O   UNL d   1      13.532  29.357  22.968  0.00  0.00    -0.358 OA
ATOM     16  H   UNL d   1      13.241  29.326  23.515  0.00  0.00     0.217 HD
ENDBRANCH   5  15
TORSDOF 6
ENDMDL
