MODEL 1
REMARK VINA RESULT:   -10.804      0.000      0.000
REMARK INTER + INTRA:          -2.717
REMARK INTER:                 -14.984
REMARK INTRA:                  12.267
REMARK UNBOUND:                12.193
REMARK  7 active torsions:
REMARK  status: ('A' for Active; 'I' for Inactive)
REMARK    1  A    between atoms: C_22  and  O_1 
REMARK    2  A    between atoms: C_6  and  C_13 
REMARK    3  A    between atoms: C_13  and  C_20 
REMARK    4  A    between atoms: C_20  and  C_24 
REMARK    5  A    between atoms: C_25  and  C_24 
REMARK    6  A    between atoms: C_25  and  C_26 
REMARK    7  A    between atoms: C_25  and  C_27 
ROOT
ATOM      1  C   UNL d   1       8.366   6.715 -10.065  0.00  0.00    -0.036 A 
ATOM      2  C   UNL d   1       8.414   6.254 -10.952  0.00  0.00    -0.001 A 
ATOM      3  C   UNL d   1       8.764   6.742 -11.751  0.00  0.00    -0.001 A 
ATOM      4  C   UNL d   1       9.067   7.691 -11.664  0.00  0.00     0.003 A 
ATOM      5  C   UNL d   1       7.995   6.070  -9.407  0.00  0.00    -0.002 A 
ATOM      6  C   UNL d   1       8.669   7.664  -9.979  0.00  0.00     0.010 A 
ATOM      7  C   UNL d   1       9.434   8.213 -12.488  0.00  0.00    -0.017 A 
ATOM      8  C   UNL d   1       8.072   5.328 -10.833  0.00  0.00     0.006 A 
ATOM      9  C   UNL d   1       9.019   8.152 -10.778  0.00  0.00     0.007 A 
ATOM     10  C   UNL d   1       7.814   5.214  -9.879  0.00  0.00     0.006 A 
ATOM     11  C   UNL d   1       8.808   6.249 -12.668  0.00  0.00     0.033 A 
ATOM     12  C   UNL d   1       8.318   7.176  -9.179  0.00  0.00     0.016 C 
ATOM     13  C   UNL d   1       9.487   7.739 -13.414  0.00  0.00    -0.072 A 
ATOM     14  C   UNL d   1       9.756   9.242 -12.369  0.00  0.00     0.016 A 
ATOM     15  C   UNL d   1       9.172   6.750 -13.505  0.00  0.00    -0.023 A 
ATOM     16  C   UNL d   1       9.383   8.667 -11.598  0.00  0.00     0.020 C 
ATOM     17  C   UNL d   1       9.866   8.263 -14.287  0.00  0.00     0.066 A 
ATOM     18  C   UNL d   1      10.139   9.786 -13.227  0.00  0.00     0.033 A 
ATOM     19  C   UNL d   1      10.194   9.292 -14.192  0.00  0.00     0.122 A 
ENDROOT
BRANCH   5  20
ATOM     20  C   UNL d   1       7.833   6.250  -8.436  0.00  0.00    -0.014 C 
ATOM     21  C   UNL d   1       8.530   6.013  -7.761  0.00  0.00     0.010 C 
BRANCH  20  22
ATOM     22  C   UNL d   1       6.973   6.666  -8.142  0.00  0.00     0.005 C 
BRANCH  22  23
ATOM     23  C   UNL d   1       6.610   6.474  -7.230  0.00  0.00     0.005 C 
BRANCH  23  24
ATOM     24  C   UNL d   1       5.711   6.822  -6.966  0.00  0.00    -0.012 C 
BRANCH  24  25
ATOM     25  C   UNL d   1       5.630   7.720  -6.533  0.00  0.00    -0.019 C 
ATOM     26  C   UNL d   1       6.006   7.870  -5.620  0.00  0.00     0.010 C 
ATOM     27  C   UNL d   1       5.172   8.468  -7.015  0.00  0.00     0.010 C 
ENDBRANCH  24  25
BRANCH  24  28
ATOM     28  C   UNL d   1       4.892   6.273  -7.135  0.00  0.00     0.000 C 
ATOM     29  C   UNL d   1       4.850   5.327  -6.813  0.00  0.00     0.005 C 
ENDBRANCH  24  28
ENDBRANCH  23  24
ENDBRANCH  22  23
ENDBRANCH  20  22
ENDBRANCH   5  20
BRANCH  19  30
ATOM     30  O   UNL d   1      10.545   9.783 -14.989  0.00  0.00    -0.395 OA
ATOM     31  H   UNL d   1      11.011   9.544 -15.320  0.00  0.00     0.210 HD
ENDBRANCH  19  30
TORSDOF 7
ENDMDL
MODEL 2
REMARK VINA RESULT:   -10.795      2.860      6.098
REMARK INTER + INTRA:          -2.704
REMARK INTER:                 -14.968
REMARK INTRA:                  12.264
REMARK UNBOUND:                12.193
REMARK  7 active torsions:
REMARK  status: ('A' for Active; 'I' for Inactive)
REMARK    1  A    between atoms: C_22  and  O_1 
REMARK    2  A    between atoms: C_6  and  C_13 
REMARK    3  A    between atoms: C_13  and  C_20 
REMARK    4  A    between atoms: C_20  and  C_24 
REMARK    5  A    between atoms: C_25  and  C_24 
REMARK    6  A    between atoms: C_25  and  C_26 
REMARK    7  A    between atoms: C_25  and  C_27 
ROOT
ATOM      1  C   UNL d   1       9.036   7.263 -11.959  0.00  0.00    -0.036 A 
ATOM      2  C   UNL d   1       8.659   7.017 -11.066  0.00  0.00    -0.001 A 
ATOM      3  C   UNL d   1       8.173   6.150 -10.950  0.00  0.00    -0.001 A 
ATOM      4  C   UNL d   1       8.065   5.530 -11.726  0.00  0.00     0.003 A 
ATOM      5  C   UNL d   1       9.474   8.150 -11.870  0.00  0.00    -0.002 A 
ATOM      6  C   UNL d   1       8.928   6.642 -12.735  0.00  0.00     0.010 A 
ATOM      7  C   UNL d   1       7.563   4.623 -11.620  0.00  0.00    -0.017 A 
ATOM      8  C   UNL d   1       8.868   7.754 -10.433  0.00  0.00     0.006 A 
ATOM      9  C   UNL d   1       8.443   5.775 -12.619  0.00  0.00     0.007 A 
ATOM     10  C   UNL d   1       9.371   8.454 -10.929  0.00  0.00     0.006 A 
ATOM     11  C   UNL d   1       7.786   5.908 -10.013  0.00  0.00     0.033 A 
ATOM     12  C   UNL d   1       9.413   7.509 -12.852  0.00  0.00     0.016 C 
ATOM     13  C   UNL d   1       7.167   4.360 -10.693  0.00  0.00    -0.072 A 
ATOM     14  C   UNL d   1       7.458   3.966 -12.477  0.00  0.00     0.016 A 
ATOM     15  C   UNL d   1       7.279   5.007  -9.884  0.00  0.00    -0.023 A 
ATOM     16  C   UNL d   1       7.942   4.876 -12.510  0.00  0.00     0.020 C 
ATOM     17  C   UNL d   1       6.639   3.421 -10.558  0.00  0.00     0.066 A 
ATOM     18  C   UNL d   1       6.934   3.022 -12.367  0.00  0.00     0.033 A 
ATOM     19  C   UNL d   1       6.522   2.748 -11.401  0.00  0.00     0.122 A 
ENDROOT
BRANCH   5  20
ATOM     20  C   UNL d   1       9.940   8.651 -12.601  0.00  0.00    -0.014 C 
ATOM     21  C   UNL d   1      10.892   8.441 -12.823  0.00  0.00     0.010 C 
BRANCH  20  22
ATOM     22  C   UNL d   1       9.453   9.361 -13.108  0.00  0.00     0.005 C 
BRANCH  22  23
ATOM     23  C   UNL d   1       9.815  10.293 -13.137  0.00  0.00     0.005 C 
BRANCH  23  24
ATOM     24  C   UNL d   1       9.264  11.032 -13.523  0.00  0.00    -0.012 C 
BRANCH  24  25
ATOM     25  C   UNL d   1       8.691  11.593 -12.926  0.00  0.00    -0.019 C 
ATOM     26  C   UNL d   1       9.077  11.997 -12.097  0.00  0.00     0.010 C 
ATOM     27  C   UNL d   1       7.730  11.749 -13.157  0.00  0.00     0.010 C 
ENDBRANCH  24  25
BRANCH  24  28
ATOM     28  C   UNL d   1       9.285  11.210 -14.507  0.00  0.00     0.000 C 
ATOM     29  C   UNL d   1      10.162  11.263 -14.986  0.00  0.00     0.005 C 
ENDBRANCH  24  28
ENDBRANCH  23  24
ENDBRANCH  22  23
ENDBRANCH  20  22
ENDBRANCH   5  20
BRANCH  19  30
ATOM     30  O   UNL d   1       6.037   1.881 -11.288  0.00  0.00    -0.395 OA
ATOM     31  H   UNL d   1       5.552   1.747 -11.651  0.00  0.00     0.210 HD
ENDBRANCH  19  30
TORSDOF 7
ENDMDL
MODEL 3
REMARK VINA RESULT:   -10.711      2.822      5.977
REMARK INTER + INTRA:          -2.589
REMARK INTER:                 -14.843
REMARK INTRA:                  12.254
REMARK UNBOUND:                12.193
REMARK  7 active torsions:
REMARK  status: ('A' for Active; 'I' for Inactive)
REMARK    1  A    between atoms: C_22  and  O_1 
REMARK    2  A    between atoms: C_6  and  C_13 
REMARK    3  A    between atoms: C_13  and  C_20 
REMARK    4  A    between atoms: C_20  and  C_24 
REMARK    5  A    between atoms: C_25  and  C_24 
REMARK    6  A    between atoms: C_25  and  C_26 
REMARK    7  A    between atoms: C_25  and  C_27 
ROOT
ATOM      1  C   UNL d   1       8.679   7.433 -11.756  0.00  0.00    -0.036 A 
ATOM      2  C   UNL d   1       9.127   6.545 -11.866  0.00  0.00    -0.001 A 
ATOM      3  C   UNL d   1       9.285   5.963 -11.069  0.00  0.00    -0.001 A 
ATOM      4  C   UNL d   1       8.995   6.267 -10.162  0.00  0.00     0.003 A 
ATOM      5  C   UNL d   1       8.615   7.854 -12.653  0.00  0.00    -0.002 A 
ATOM      6  C   UNL d   1       8.390   7.737 -10.849  0.00  0.00     0.010 A 
ATOM      7  C   UNL d   1       9.153   5.671  -9.322  0.00  0.00    -0.017 A 
ATOM      8  C   UNL d   1       9.336   6.427 -12.831  0.00  0.00     0.006 A 
ATOM      9  C   UNL d   1       8.548   7.155 -10.051  0.00  0.00     0.007 A 
ATOM     10  C   UNL d   1       9.020   7.235 -13.317  0.00  0.00     0.006 A 
ATOM     11  C   UNL d   1       9.753   5.041 -11.200  0.00  0.00     0.033 A 
ATOM     12  C   UNL d   1       8.232   8.320 -11.646  0.00  0.00     0.016 C 
ATOM     13  C   UNL d   1       9.619   4.745  -9.429  0.00  0.00    -0.072 A 
ATOM     14  C   UNL d   1       8.830   6.023  -8.348  0.00  0.00     0.016 A 
ATOM     15  C   UNL d   1       9.921   4.428 -10.374  0.00  0.00    -0.023 A 
ATOM     16  C   UNL d   1       8.706   6.560  -9.220  0.00  0.00     0.020 C 
ATOM     17  C   UNL d   1       9.794   4.107  -8.568  0.00  0.00     0.066 A 
ATOM     18  C   UNL d   1       8.995   5.402  -7.473  0.00  0.00     0.033 A 
ATOM     19  C   UNL d   1       9.480   4.438  -7.585  0.00  0.00     0.122 A 
ENDROOT
BRANCH   5  20
ATOM     20  C   UNL d   1       8.213   8.748 -12.855  0.00  0.00    -0.014 C 
ATOM     21  C   UNL d   1       7.236   8.823 -13.056  0.00  0.00     0.010 C 
BRANCH  20  22
ATOM     22  C   UNL d   1       8.787   9.566 -12.854  0.00  0.00     0.005 C 
BRANCH  22  23
ATOM     23  C   UNL d   1       8.482  10.392 -13.330  0.00  0.00     0.005 C 
BRANCH  23  24
ATOM     24  C   UNL d   1       9.022  11.231 -13.270  0.00  0.00    -0.012 C 
BRANCH  24  25
ATOM     25  C   UNL d   1       8.735  11.967 -12.657  0.00  0.00    -0.019 C 
ATOM     26  C   UNL d   1       7.909  12.492 -12.857  0.00  0.00     0.010 C 
ATOM     27  C   UNL d   1       9.277  12.179 -11.843  0.00  0.00     0.010 C 
ENDBRANCH  24  25
BRANCH  24  28
ATOM     28  C   UNL d   1       9.848  11.335 -13.824  0.00  0.00     0.000 C 
ATOM     29  C   UNL d   1       9.795  11.254 -14.820  0.00  0.00     0.005 C 
ENDBRANCH  24  28
ENDBRANCH  23  24
ENDBRANCH  22  23
ENDBRANCH  20  22
ENDBRANCH   5  20
BRANCH  19  30
ATOM     30  O   UNL d   1       9.636   3.858  -6.785  0.00  0.00    -0.395 OA
ATOM     31  H   UNL d   1       9.217   3.430  -6.625  0.00  0.00     0.210 HD
ENDBRANCH  19  30
TORSDOF 7
ENDMDL
MODEL 4
REMARK VINA RESULT:   -10.693      2.537      6.229
REMARK INTER + INTRA:          -2.563
REMARK INTER:                 -14.889
REMARK INTRA:                  12.326
REMARK UNBOUND:                12.193
REMARK  7 active torsions:
REMARK  status: ('A' for Active; 'I' for Inactive)
REMARK    1  A    between atoms: C_22  and  O_1 
REMARK    2  A    between atoms: C_6  and  C_13 
REMARK    3  A    between atoms: C_13  and  C_20 
REMARK    4  A    between atoms: C_20  and  C_24 
REMARK    5  A    between atoms: C_25  and  C_24 
REMARK    6  A    between atoms: C_25  and  C_26 
REMARK    7  A    between atoms: C_25  and  C_27 
ROOT
ATOM      1  C   UNL d   1       8.764   8.426 -10.703  0.00  0.00    -0.036 A 
ATOM      2  C   UNL d   1       9.163   7.509 -10.693  0.00  0.00    -0.001 A 
ATOM      3  C   UNL d   1       8.752   6.791 -10.131  0.00  0.00    -0.001 A 
ATOM      4  C   UNL d   1       7.942   6.990  -9.579  0.00  0.00     0.003 A 
ATOM      5  C   UNL d   1       9.309   8.988 -11.315  0.00  0.00    -0.002 A 
ATOM      6  C   UNL d   1       7.954   8.624 -10.151  0.00  0.00     0.010 A 
ATOM      7  C   UNL d   1       7.503   6.252  -8.988  0.00  0.00    -0.017 A 
ATOM      8  C   UNL d   1       9.951   7.513 -11.298  0.00  0.00     0.006 A 
ATOM      9  C   UNL d   1       7.543   7.907  -9.589  0.00  0.00     0.007 A 
ATOM     10  C   UNL d   1      10.041   8.426 -11.682  0.00  0.00     0.006 A 
ATOM     11  C   UNL d   1       9.179   5.840 -10.130  0.00  0.00     0.033 A 
ATOM     12  C   UNL d   1       8.364   9.342 -10.713  0.00  0.00     0.016 C 
ATOM     13  C   UNL d   1       7.913   5.295  -8.972  0.00  0.00    -0.072 A 
ATOM     14  C   UNL d   1       6.625   6.492  -8.398  0.00  0.00     0.016 A 
ATOM     15  C   UNL d   1       8.757   5.087  -9.547  0.00  0.00    -0.023 A 
ATOM     16  C   UNL d   1       7.110   7.172  -9.004  0.00  0.00     0.020 C 
ATOM     17  C   UNL d   1       7.473   4.510  -8.365  0.00  0.00     0.066 A 
ATOM     18  C   UNL d   1       6.167   5.724  -7.783  0.00  0.00     0.033 A 
ATOM     19  C   UNL d   1       6.595   4.726  -7.767  0.00  0.00     0.122 A 
ENDROOT
BRANCH   5  20
ATOM     20  C   UNL d   1       9.148   9.953 -11.524  0.00  0.00    -0.014 C 
ATOM     21  C   UNL d   1       9.405  10.657 -10.863  0.00  0.00     0.010 C 
BRANCH  20  22
ATOM     22  C   UNL d   1       8.732  10.212 -12.395  0.00  0.00     0.005 C 
BRANCH  22  23
ATOM     23  C   UNL d   1       9.020  11.052 -12.857  0.00  0.00     0.005 C 
BRANCH  23  24
ATOM     24  C   UNL d   1       8.675  11.264 -13.771  0.00  0.00    -0.012 C 
BRANCH  24  25
ATOM     25  C   UNL d   1       7.762  11.657 -13.882  0.00  0.00    -0.019 C 
ATOM     26  C   UNL d   1       7.578  12.588 -13.569  0.00  0.00     0.010 C 
ATOM     27  C   UNL d   1       7.034  11.117 -14.306  0.00  0.00     0.010 C 
ENDBRANCH  24  25
BRANCH  24  28
ATOM     28  C   UNL d   1       9.242  11.082 -14.574  0.00  0.00     0.000 C 
ATOM     29  C   UNL d   1      10.221  11.288 -14.551  0.00  0.00     0.005 C 
ENDBRANCH  24  28
ENDBRANCH  23  24
ENDBRANCH  22  23
ENDBRANCH  20  22
ENDBRANCH   5  20
BRANCH  19  30
ATOM     30  O   UNL d   1       6.182   4.011  -7.203  0.00  0.00    -0.395 OA
ATOM     31  H   UNL d   1       5.710   3.675  -7.426  0.00  0.00     0.210 HD
ENDBRANCH  19  30
TORSDOF 7
ENDMDL
MODEL 5
REMARK VINA RESULT:   -10.583      1.529      2.885
REMARK INTER + INTRA:          -2.411
REMARK INTER:                 -14.543
REMARK INTRA:                  12.132
REMARK UNBOUND:                12.193
REMARK  7 active torsions:
REMARK  status: ('A' for Active; 'I' for Inactive)
REMARK    1  A    between atoms: C_22  and  O_1 
REMARK    2  A    between atoms: C_6  and  C_13 
REMARK    3  A    between atoms: C_13  and  C_20 
REMARK    4  A    between atoms: C_20  and  C_24 
REMARK    5  A    between atoms: C_25  and  C_24 
REMARK    6  A    between atoms: C_25  and  C_26 
REMARK    7  A    between atoms: C_25  and  C_27 
ROOT
ATOM      1  C   UNL d   1       9.504   6.781 -11.619  0.00  0.00    -0.036 A 
ATOM      2  C   UNL d   1      10.352   6.909 -12.133  0.00  0.00    -0.001 A 
ATOM      3  C   UNL d   1      10.460   7.704 -12.730  0.00  0.00    -0.001 A 
ATOM      4  C   UNL d   1       9.719   8.371 -12.814  0.00  0.00     0.003 A 
ATOM      5  C   UNL d   1       9.591   5.944 -11.092  0.00  0.00    -0.002 A 
ATOM      6  C   UNL d   1       8.763   7.448 -11.703  0.00  0.00     0.010 A 
ATOM      7  C   UNL d   1       9.817   9.203 -13.432  0.00  0.00    -0.017 A 
ATOM      8  C   UNL d   1      10.956   6.150 -11.918  0.00  0.00     0.006 A 
ATOM      9  C   UNL d   1       8.871   8.242 -12.300  0.00  0.00     0.007 A 
ATOM     10  C   UNL d   1      10.487   5.554 -11.275  0.00  0.00     0.006 A 
ATOM     11  C   UNL d   1      11.349   7.824 -13.259  0.00  0.00     0.033 A 
ATOM     12  C   UNL d   1       8.655   6.653 -11.106  0.00  0.00     0.016 C 
ATOM     13  C   UNL d   1      10.698   9.344 -13.970  0.00  0.00    -0.072 A 
ATOM     14  C   UNL d   1       9.000   9.913 -13.506  0.00  0.00     0.016 A 
ATOM     15  C   UNL d   1      11.469   8.649 -13.883  0.00  0.00    -0.023 A 
ATOM     16  C   UNL d   1       8.971   9.069 -12.915  0.00  0.00     0.020 C 
ATOM     17  C   UNL d   1      10.822  10.204 -14.621  0.00  0.00     0.066 A 
ATOM     18  C   UNL d   1       9.101  10.781 -14.150  0.00  0.00     0.033 A 
ATOM     19  C   UNL d   1      10.019  10.927 -14.711  0.00  0.00     0.122 A 
ENDROOT
BRANCH   5  20
ATOM     20  C   UNL d   1       8.898   5.559 -10.481  0.00  0.00    -0.014 C 
ATOM     21  C   UNL d   1       8.172   4.980 -10.851  0.00  0.00     0.010 C 
BRANCH  20  22
ATOM     22  C   UNL d   1       8.932   5.754  -9.501  0.00  0.00     0.005 C 
BRANCH  22  23
ATOM     23  C   UNL d   1       8.622   5.067  -8.843  0.00  0.00     0.005 C 
BRANCH  23  24
ATOM     24  C   UNL d   1       8.762   5.213  -7.865  0.00  0.00    -0.012 C 
BRANCH  24  25
ATOM     25  C   UNL d   1       9.336   4.583  -7.342  0.00  0.00    -0.019 C 
ATOM     26  C   UNL d   1       9.214   3.596  -7.442  0.00  0.00     0.010 C 
ATOM     27  C   UNL d   1      10.032   4.940  -6.718  0.00  0.00     0.010 C 
ENDBRANCH  24  25
BRANCH  24  28
ATOM     28  C   UNL d   1       8.328   5.990  -7.408  0.00  0.00     0.000 C 
ATOM     29  C   UNL d   1       7.338   5.996  -7.264  0.00  0.00     0.005 C 
ENDBRANCH  24  28
ENDBRANCH  23  24
ENDBRANCH  22  23
ENDBRANCH  20  22
ENDBRANCH   5  20
BRANCH  19  30
ATOM     30  O   UNL d   1      10.123  11.723 -15.307  0.00  0.00    -0.395 OA
ATOM     31  H   UNL d   1      10.673  11.846 -15.567  0.00  0.00     0.210 HD
ENDBRANCH  19  30
TORSDOF 7
ENDMDL
