MODEL 1
REMARK VINA RESULT:    -8.991      0.000      0.000
REMARK INTER + INTRA:          -9.563
REMARK INTER:                 -10.976
REMARK INTRA:                   1.413
REMARK UNBOUND:                 1.005
REMARK  5 active torsions:
REMARK  status: ('A' for Active; 'I' for Inactive)
REMARK    1  A    between atoms: O_2  and  C_13 
REMARK    2  A    between atoms: O_4  and  C_16 
REMARK    3  A    between atoms: O_5  and  C_19 
REMARK    4  A    between atoms: O_6  and  C_21 
REMARK    5  A    between atoms: C_9  and  C_10 
ROOT
ATOM      1  O   UNL d   1       9.714  19.296  10.233  0.00  0.00    -0.309 OA
ATOM      2  O   UNL d   1      11.052  19.165   7.551  0.00  0.00    -0.287 OA
ATOM      3  C   UNL d   1      10.999  18.720   9.224  0.00  0.00     0.081 A 
ATOM      4  C   UNL d   1      10.553  18.764  10.118  0.00  0.00     0.095 A 
ATOM      5  C   UNL d   1       9.321  19.784   9.454  0.00  0.00     0.090 A 
ATOM      6  C   UNL d   1      10.606  19.209   8.445  0.00  0.00     0.190 A 
ATOM      7  C   UNL d   1       9.767  19.741   8.560  0.00  0.00     0.094 A 
ATOM      8  C   UNL d   1      11.873  18.170   9.090  0.00  0.00     0.085 A 
ATOM      9  C   UNL d   1      10.950  18.261  10.939  0.00  0.00     0.075 A 
ATOM     10  C   UNL d   1      11.824  17.704  10.827  0.00  0.00     0.071 A 
ATOM     11  C   UNL d   1      12.288  17.659   9.897  0.00  0.00     0.074 A 
ENDROOT
BRANCH   5  12
ATOM     12  C   UNL d   1       8.482  20.316   9.569  0.00  0.00     0.001 A 
ATOM     13  C   UNL d   1       8.037  20.726   8.772  0.00  0.00     0.053 A 
ATOM     14  C   UNL d   1       7.198  21.258   8.887  0.00  0.00     0.099 A 
ATOM     15  C   UNL d   1       6.805  21.381   9.798  0.00  0.00     0.098 A 
ATOM     16  C   UNL d   1       7.250  20.971  10.595  0.00  0.00     0.040 A 
ATOM     17  C   UNL d   1       8.089  20.439  10.480  0.00  0.00     0.017 A 
BRANCH  14  18
ATOM     18  O   UNL d   1       6.753  21.667   8.091  0.00  0.00    -0.358 OA
ATOM     19  H   UNL d   1       6.873  21.450   7.523  0.00  0.00     0.217 HD
ENDBRANCH  14  18
BRANCH  15  20
ATOM     20  O   UNL d   1       5.966  21.913   9.913  0.00  0.00    -0.358 OA
ATOM     21  H   UNL d   1       5.499  21.686  10.252  0.00  0.00     0.217 HD
ENDBRANCH  15  20
ENDBRANCH   5  12
BRANCH   8  22
ATOM     22  O   UNL d   1      12.310  18.133   8.191  0.00  0.00    -0.360 OA
ATOM     23  H   UNL d   1      12.902  17.956   8.142  0.00  0.00     0.217 HD
ENDBRANCH   8  22
BRANCH  10  24
ATOM     24  O   UNL d   1      12.214  17.217  11.608  0.00  0.00    -0.361 OA
ATOM     25  H   UNL d   1      12.685  16.824  11.525  0.00  0.00     0.217 HD
ENDBRANCH  10  24
TORSDOF 5
ENDMDL
MODEL 2
REMARK VINA RESULT:    -8.979     33.860     35.740
REMARK INTER + INTRA:          -9.549
REMARK INTER:                 -10.552
REMARK INTRA:                   1.003
REMARK UNBOUND:                 1.005
REMARK  5 active torsions:
REMARK  status: ('A' for Active; 'I' for Inactive)
REMARK    1  A    between atoms: O_2  and  C_13 
REMARK    2  A    between atoms: O_4  and  C_16 
REMARK    3  A    between atoms: O_5  and  C_19 
REMARK    4  A    between atoms: O_6  and  C_21 
REMARK    5  A    between atoms: C_9  and  C_10 
ROOT
ATOM      1  O   UNL d   1      34.198  31.565  31.534  0.00  0.00    -0.309 OA
ATOM      2  O   UNL d   1      35.972  29.150  31.416  0.00  0.00    -0.287 OA
ATOM      3  C   UNL d   1      34.910  30.270  30.632  0.00  0.00     0.081 A 
ATOM      4  C   UNL d   1      34.318  31.075  30.671  0.00  0.00     0.095 A 
ATOM      5  C   UNL d   1      34.669  31.250  32.358  0.00  0.00     0.090 A 
ATOM      6  C   UNL d   1      35.381  29.955  31.455  0.00  0.00     0.190 A 
ATOM      7  C   UNL d   1      35.260  30.445  32.319  0.00  0.00     0.094 A 
ATOM      8  C   UNL d   1      35.044  29.749  29.740  0.00  0.00     0.085 A 
ATOM      9  C   UNL d   1      33.821  31.416  29.821  0.00  0.00     0.075 A 
ATOM     10  C   UNL d   1      33.941  30.910  28.919  0.00  0.00     0.071 A 
ATOM     11  C   UNL d   1      34.557  30.072  28.878  0.00  0.00     0.074 A 
ENDROOT
BRANCH   5  12
ATOM     12  C   UNL d   1      34.548  31.741  33.221  0.00  0.00     0.001 A 
ATOM     13  C   UNL d   1      35.222  32.422  33.507  0.00  0.00     0.053 A 
ATOM     14  C   UNL d   1      35.101  32.913  34.370  0.00  0.00     0.099 A 
ATOM     15  C   UNL d   1      34.308  32.721  34.948  0.00  0.00     0.098 A 
ATOM     16  C   UNL d   1      33.634  32.040  34.662  0.00  0.00     0.040 A 
ATOM     17  C   UNL d   1      33.755  31.549  33.798  0.00  0.00     0.017 A 
BRANCH  14  18
ATOM     18  O   UNL d   1      35.775  33.594  34.656  0.00  0.00    -0.358 OA
ATOM     19  H   UNL d   1      35.805  33.770  35.250  0.00  0.00     0.217 HD
ENDBRANCH  14  18
BRANCH  15  20
ATOM     20  O   UNL d   1      34.187  33.211  35.811  0.00  0.00    -0.358 OA
ATOM     21  H   UNL d   1      33.731  33.627  35.870  0.00  0.00     0.217 HD
ENDBRANCH  15  20
ENDBRANCH   5  12
BRANCH   8  22
ATOM     22  O   UNL d   1      35.638  28.945  29.712  0.00  0.00    -0.360 OA
ATOM     23  H   UNL d   1      35.780  28.647  30.236  0.00  0.00     0.217 HD
ENDBRANCH   8  22
BRANCH  10  24
ATOM     24  O   UNL d   1      33.469  31.228  28.097  0.00  0.00    -0.361 OA
ATOM     25  H   UNL d   1      32.892  31.036  27.977  0.00  0.00     0.217 HD
ENDBRANCH  10  24
TORSDOF 5
ENDMDL
MODEL 3
REMARK VINA RESULT:    -8.950     36.947     38.668
REMARK INTER + INTRA:          -9.515
REMARK INTER:                 -10.567
REMARK INTRA:                   1.052
REMARK UNBOUND:                 1.005
REMARK  5 active torsions:
REMARK  status: ('A' for Active; 'I' for Inactive)
REMARK    1  A    between atoms: O_2  and  C_13 
REMARK    2  A    between atoms: O_4  and  C_16 
REMARK    3  A    between atoms: O_5  and  C_19 
REMARK    4  A    between atoms: O_6  and  C_21 
REMARK    5  A    between atoms: C_9  and  C_10 
ROOT
ATOM      1  O   UNL d   1      34.398  32.323  36.986  0.00  0.00    -0.309 OA
ATOM      2  O   UNL d   1      36.023  33.212  34.626  0.00  0.00    -0.287 OA
ATOM      3  C   UNL d   1      35.907  32.843  36.314  0.00  0.00     0.081 A 
ATOM      4  C   UNL d   1      35.366  32.547  37.101  0.00  0.00     0.095 A 
ATOM      5  C   UNL d   1      33.972  32.396  36.085  0.00  0.00     0.090 A 
ATOM      6  C   UNL d   1      35.481  32.916  35.413  0.00  0.00     0.190 A 
ATOM      7  C   UNL d   1      34.513  32.692  35.298  0.00  0.00     0.094 A 
ATOM      8  C   UNL d   1      36.916  33.080  36.419  0.00  0.00     0.085 A 
ATOM      9  C   UNL d   1      35.796  32.467  38.047  0.00  0.00     0.075 A 
ATOM     10  C   UNL d   1      36.803  32.698  38.174  0.00  0.00     0.071 A 
ATOM     11  C   UNL d   1      37.367  33.007  37.355  0.00  0.00     0.074 A 
ENDROOT
BRANCH   5  12
ATOM     12  C   UNL d   1      33.004  32.172  35.970  0.00  0.00     0.001 A 
ATOM     13  C   UNL d   1      32.736  31.375  35.428  0.00  0.00     0.053 A 
ATOM     14  C   UNL d   1      31.768  31.151  35.313  0.00  0.00     0.099 A 
ATOM     15  C   UNL d   1      31.068  31.724  35.740  0.00  0.00     0.098 A 
ATOM     16  C   UNL d   1      31.336  32.520  36.282  0.00  0.00     0.040 A 
ATOM     17  C   UNL d   1      32.304  32.744  36.397  0.00  0.00     0.017 A 
BRANCH  14  18
ATOM     18  O   UNL d   1      31.500  30.355  34.771  0.00  0.00    -0.358 OA
ATOM     19  H   UNL d   1      30.935  30.110  34.838  0.00  0.00     0.217 HD
ENDBRANCH  14  18
BRANCH  15  20
ATOM     20  O   UNL d   1      30.101  31.500  35.625  0.00  0.00    -0.358 OA
ATOM     21  H   UNL d   1      29.921  30.907  35.593  0.00  0.00     0.217 HD
ENDBRANCH  15  20
ENDBRANCH   5  12
BRANCH   8  22
ATOM     22  O   UNL d   1      37.448  33.375  35.625  0.00  0.00    -0.360 OA
ATOM     23  H   UNL d   1      38.057  33.261  35.600  0.00  0.00     0.217 HD
ENDBRANCH   8  22
BRANCH  10  24
ATOM     24  O   UNL d   1      37.226  32.625  39.077  0.00  0.00    -0.361 OA
ATOM     25  H   UNL d   1      37.755  32.310  39.147  0.00  0.00     0.217 HD
ENDBRANCH  10  24
TORSDOF 5
ENDMDL
MODEL 4
REMARK VINA RESULT:    -8.921     34.989     36.264
REMARK INTER + INTRA:          -9.480
REMARK INTER:                 -10.489
REMARK INTRA:                   1.009
REMARK UNBOUND:                 1.005
REMARK  5 active torsions:
REMARK  status: ('A' for Active; 'I' for Inactive)
REMARK    1  A    between atoms: O_2  and  C_13 
REMARK    2  A    between atoms: O_4  and  C_16 
REMARK    3  A    between atoms: O_5  and  C_19 
REMARK    4  A    between atoms: O_6  and  C_21 
REMARK    5  A    between atoms: C_9  and  C_10 
ROOT
ATOM      1  O   UNL d   1      20.773 -14.645  16.603  0.00  0.00    -0.309 OA
ATOM      2  O   UNL d   1      21.415 -12.263  14.896  0.00  0.00    -0.287 OA
ATOM      3  C   UNL d   1      21.861 -13.378  16.145  0.00  0.00     0.081 A 
ATOM      4  C   UNL d   1      21.647 -14.172  16.713  0.00  0.00     0.095 A 
ATOM      5  C   UNL d   1      20.113 -14.324  15.923  0.00  0.00     0.090 A 
ATOM      6  C   UNL d   1      21.201 -13.057  15.465  0.00  0.00     0.190 A 
ATOM      7  C   UNL d   1      20.327 -13.530  15.355  0.00  0.00     0.094 A 
ATOM      8  C   UNL d   1      22.767 -12.875  16.249  0.00  0.00     0.085 A 
ATOM      9  C   UNL d   1      22.324 -14.518  17.426  0.00  0.00     0.075 A 
ATOM     10  C   UNL d   1      23.237 -14.030  17.546  0.00  0.00     0.071 A 
ATOM     11  C   UNL d   1      23.459 -13.203  16.954  0.00  0.00     0.074 A 
ENDROOT
BRANCH   5  12
ATOM     12  C   UNL d   1      19.239 -14.798  15.813  0.00  0.00     0.001 A 
ATOM     13  C   UNL d   1      19.115 -15.450  15.065  0.00  0.00     0.053 A 
ATOM     14  C   UNL d   1      18.241 -15.924  14.955  0.00  0.00     0.099 A 
ATOM     15  C   UNL d   1      17.492 -15.744  15.592  0.00  0.00     0.098 A 
ATOM     16  C   UNL d   1      17.616 -15.092  16.339  0.00  0.00     0.040 A 
ATOM     17  C   UNL d   1      18.490 -14.619  16.450  0.00  0.00     0.017 A 
BRANCH  14  18
ATOM     18  O   UNL d   1      18.117 -16.576  14.207  0.00  0.00    -0.358 OA
ATOM     19  H   UNL d   1      18.034 -16.371  13.628  0.00  0.00     0.217 HD
ENDBRANCH  14  18
BRANCH  15  20
ATOM     20  O   UNL d   1      16.618 -16.218  15.481  0.00  0.00    -0.358 OA
ATOM     21  H   UNL d   1      16.373 -16.532  15.956  0.00  0.00     0.217 HD
ENDBRANCH  15  20
ENDBRANCH   5  12
BRANCH   8  22
ATOM     22  O   UNL d   1      22.970 -12.082  15.674  0.00  0.00    -0.360 OA
ATOM     23  H   UNL d   1      22.629 -11.567  15.725  0.00  0.00     0.217 HD
ENDBRANCH   8  22
BRANCH  10  24
ATOM     24  O   UNL d   1      23.894 -14.353  18.227  0.00  0.00    -0.361 OA
ATOM     25  H   UNL d   1      24.406 -14.651  18.046  0.00  0.00     0.217 HD
ENDBRANCH  10  24
TORSDOF 5
ENDMDL
MODEL 5
REMARK VINA RESULT:    -8.902     33.466     35.377
REMARK INTER + INTRA:          -9.458
REMARK INTER:                 -10.504
REMARK INTRA:                   1.046
REMARK UNBOUND:                 1.005
REMARK  5 active torsions:
REMARK  status: ('A' for Active; 'I' for Inactive)
REMARK    1  A    between atoms: O_2  and  C_13 
REMARK    2  A    between atoms: O_4  and  C_16 
REMARK    3  A    between atoms: O_5  and  C_19 
REMARK    4  A    between atoms: O_6  and  C_21 
REMARK    5  A    between atoms: C_9  and  C_10 
ROOT
ATOM      1  O   UNL d   1      34.286  31.712  32.415  0.00  0.00    -0.309 OA
ATOM      2  O   UNL d   1      32.131  29.962  33.553  0.00  0.00    -0.287 OA
ATOM      3  C   UNL d   1      33.300  31.225  33.753  0.00  0.00     0.081 A 
ATOM      4  C   UNL d   1      34.018  31.808  33.374  0.00  0.00     0.095 A 
ATOM      5  C   UNL d   1      33.835  31.033  31.836  0.00  0.00     0.090 A 
ATOM      6  C   UNL d   1      32.850  30.545  33.174  0.00  0.00     0.190 A 
ATOM      7  C   UNL d   1      33.117  30.450  32.215  0.00  0.00     0.094 A 
ATOM      8  C   UNL d   1      33.011  31.313  34.750  0.00  0.00     0.085 A 
ATOM      9  C   UNL d   1      34.497  32.520  33.965  0.00  0.00     0.075 A 
ATOM     10  C   UNL d   1      34.223  32.626  34.964  0.00  0.00     0.071 A 
ATOM     11  C   UNL d   1      33.476  32.018  35.359  0.00  0.00     0.074 A 
ENDROOT
BRANCH   5  12
ATOM     12  C   UNL d   1      34.103  30.937  30.877  0.00  0.00     0.001 A 
ATOM     13  C   UNL d   1      33.473  31.213  30.152  0.00  0.00     0.053 A 
ATOM     14  C   UNL d   1      33.740  31.117  29.193  0.00  0.00     0.099 A 
ATOM     15  C   UNL d   1      34.639  30.745  28.960  0.00  0.00     0.098 A 
ATOM     16  C   UNL d   1      35.269  30.469  29.685  0.00  0.00     0.040 A 
ATOM     17  C   UNL d   1      35.001  30.565  30.644  0.00  0.00     0.017 A 
BRANCH  14  18
ATOM     18  O   UNL d   1      33.110  31.394  28.468  0.00  0.00    -0.358 OA
ATOM     19  H   UNL d   1      32.718  30.980  28.223  0.00  0.00     0.217 HD
ENDBRANCH  14  18
BRANCH  15  20
ATOM     20  O   UNL d   1      34.906  30.649  28.001  0.00  0.00    -0.358 OA
ATOM     21  H   UNL d   1      35.220  30.148  27.815  0.00  0.00     0.217 HD
ENDBRANCH  15  20
ENDBRANCH   5  12
BRANCH   8  22
ATOM     22  O   UNL d   1      32.291  30.724  35.118  0.00  0.00    -0.360 OA
ATOM     23  H   UNL d   1      32.441  30.198  35.409  0.00  0.00     0.217 HD
ENDBRANCH   8  22
BRANCH  10  24
ATOM     24  O   UNL d   1      34.676  33.306  35.541  0.00  0.00    -0.361 OA
ATOM     25  H   UNL d   1      34.340  33.727  35.847  0.00  0.00     0.217 HD
ENDBRANCH  10  24
TORSDOF 5
ENDMDL
