MODEL 1
REMARK VINA RESULT:    -6.971      0.000      0.000
REMARK INTER + INTRA:          -0.743
REMARK INTER:                 -12.740
REMARK INTRA:                  11.997
REMARK UNBOUND:                12.138
REMARK  15 active torsions:
REMARK  status: ('A' for Active; 'I' for Inactive)
REMARK    1  A    between atoms: O_1  and  C_7 
REMARK    2  A    between atoms: O_1  and  C_18 
REMARK    3  A    between atoms: O_2  and  C_9 
REMARK    4  A    between atoms: O_2  and  C_20 
REMARK    5  A    between atoms: O_5  and  C_22 
REMARK    6  A    between atoms: O_6  and  C_25 
REMARK    7  A    between atoms: C_7  and  C_8 
REMARK    8  A    between atoms: C_7  and  C_10 
REMARK    9  A    between atoms: C_8  and  C_9 
REMARK   10  A    between atoms: C_9  and  C_11 
REMARK   11  A    between atoms: C_10  and  C_12 
REMARK   12  A    between atoms: C_11  and  C_14 
REMARK   13  A    between atoms: C_12  and  C_13 
REMARK   14  A    between atoms: C_13  and  C_15 
REMARK   15  A    between atoms: C_14  and  C_16 
ROOT
ATOM      1  C   UNL d   1      13.455 -14.951  14.811  0.00  0.00     0.134 C 
ENDROOT
BRANCH   1   2
ATOM      2  O   UNL d   1      12.749 -14.260  14.654  0.00  0.00    -0.316 OA
BRANCH   2   3
ATOM      3  C   UNL d   1      12.265 -13.855  15.429  0.00  0.00     0.255 C 
ATOM      4  O   UNL d   1      11.709 -14.431  16.028  0.00  0.00    -0.266 OA
ATOM      5  C   UNL d   1      12.337 -12.873  15.605  0.00  0.00     0.126 C 
ENDBRANCH   2   3
ENDBRANCH   1   2
BRANCH   1   6
ATOM      6  C   UNL d   1      13.283 -15.906  14.570  0.00  0.00     0.065 C 
BRANCH   6   7
ATOM      7  C   UNL d   1      13.192 -16.171  13.610  0.00  0.00     0.134 C 
BRANCH   7   8
ATOM      8  O   UNL d   1      12.316 -16.509  13.265  0.00  0.00    -0.316 OA
BRANCH   8   9
ATOM      9  C   UNL d   1      11.843 -17.250  13.741  0.00  0.00     0.255 C 
ATOM     10  O   UNL d   1      12.347 -18.068  14.017  0.00  0.00    -0.266 OA
ATOM     11  C   UNL d   1      10.866 -17.173  13.940  0.00  0.00     0.126 C 
ENDBRANCH   8   9
ENDBRANCH   7   8
BRANCH   7  12
ATOM     12  C   UNL d   1      13.977 -16.099  12.995  0.00  0.00     0.032 C 
BRANCH  12  13
ATOM     13  C   UNL d   1      13.837 -15.896  12.026  0.00  0.00     0.002 C 
BRANCH  13  14
ATOM     14  C   UNL d   1      14.619 -15.678  11.442  0.00  0.00    -0.000 C 
BRANCH  14  15
ATOM     15  C   UNL d   1      14.470 -15.339  10.513  0.00  0.00    -0.005 C 
ATOM     16  C   UNL d   1      15.077 -15.627   9.772  0.00  0.00     0.005 C 
ENDBRANCH  14  15
ENDBRANCH  13  14
ENDBRANCH  12  13
ENDBRANCH   7  12
ENDBRANCH   6   7
ENDBRANCH   1   6
BRANCH   1  17
ATOM     17  C   UNL d   1      14.334 -14.687  15.209  0.00  0.00     0.037 C 
BRANCH  17  18
ATOM     18  C   UNL d   1      14.811 -15.311  15.827  0.00  0.00     0.041 C 
BRANCH  18  19
ATOM     19  C   UNL d   1      15.745 -15.108  16.121  0.00  0.00    -0.055 A 
ATOM     20  C   UNL d   1      16.521 -15.440  15.585  0.00  0.00     0.046 A 
ATOM     21  C   UNL d   1      17.455 -15.237  15.879  0.00  0.00     0.101 A 
ATOM     22  C   UNL d   1      17.612 -14.701  16.709  0.00  0.00     0.099 A 
ATOM     23  C   UNL d   1      16.836 -14.368  17.244  0.00  0.00     0.040 A 
ATOM     24  C   UNL d   1      15.902 -14.572  16.950  0.00  0.00     0.010 A 
BRANCH  21  25
ATOM     25  O   UNL d   1      18.231 -15.569  15.344  0.00  0.00    -0.353 OA
ATOM     26  C   UNL d   1      18.077 -16.002  14.456  0.00  0.00     0.210 C 
ENDBRANCH  21  25
BRANCH  22  27
ATOM     27  O   UNL d   1      18.546 -14.497  17.003  0.00  0.00    -0.358 OA
ATOM     28  H   UNL d   1      19.002 -14.903  16.892  0.00  0.00     0.217 HD
ENDBRANCH  22  27
ENDBRANCH  18  19
ENDBRANCH  17  18
ENDBRANCH   1  17
TORSDOF 15
ENDMDL
MODEL 2
REMARK VINA RESULT:    -6.918      2.066      3.778
REMARK INTER + INTRA:          -0.644
REMARK INTER:                 -13.321
REMARK INTRA:                  12.677
REMARK UNBOUND:                12.138
REMARK  15 active torsions:
REMARK  status: ('A' for Active; 'I' for Inactive)
REMARK    1  A    between atoms: O_1  and  C_7 
REMARK    2  A    between atoms: O_1  and  C_18 
REMARK    3  A    between atoms: O_2  and  C_9 
REMARK    4  A    between atoms: O_2  and  C_20 
REMARK    5  A    between atoms: O_5  and  C_22 
REMARK    6  A    between atoms: O_6  and  C_25 
REMARK    7  A    between atoms: C_7  and  C_8 
REMARK    8  A    between atoms: C_7  and  C_10 
REMARK    9  A    between atoms: C_8  and  C_9 
REMARK   10  A    between atoms: C_9  and  C_11 
REMARK   11  A    between atoms: C_10  and  C_12 
REMARK   12  A    between atoms: C_11  and  C_14 
REMARK   13  A    between atoms: C_12  and  C_13 
REMARK   14  A    between atoms: C_13  and  C_15 
REMARK   15  A    between atoms: C_14  and  C_16 
ROOT
ATOM      1  C   UNL d   1      15.766 -15.668  13.980  0.00  0.00     0.134 C 
ENDROOT
BRANCH   1   2
ATOM      2  O   UNL d   1      16.499 -16.154  13.503  0.00  0.00    -0.316 OA
BRANCH   2   3
ATOM      3  C   UNL d   1      17.454 -15.914  13.676  0.00  0.00     0.255 C 
ATOM      4  O   UNL d   1      17.834 -15.071  13.295  0.00  0.00    -0.266 OA
ATOM      5  C   UNL d   1      18.028 -16.516  14.231  0.00  0.00     0.126 C 
ENDBRANCH   2   3
ENDBRANCH   1   2
BRANCH   1   6
ATOM      6  C   UNL d   1      15.125 -15.100  13.464  0.00  0.00     0.065 C 
BRANCH   6   7
ATOM      7  C   UNL d   1      14.458 -15.526  12.854  0.00  0.00     0.134 C 
BRANCH   7   8
ATOM      8  O   UNL d   1      14.750 -15.892  11.970  0.00  0.00    -0.316 OA
BRANCH   8   9
ATOM      9  C   UNL d   1      14.693 -15.322  11.150  0.00  0.00     0.255 C 
ATOM     10  O   UNL d   1      15.372 -14.605  10.992  0.00  0.00    -0.266 OA
ATOM     11  C   UNL d   1      13.957 -15.469  10.489  0.00  0.00     0.126 C 
ENDBRANCH   8   9
ENDBRANCH   7   8
BRANCH   7  12
ATOM     12  C   UNL d   1      13.498 -15.588  13.128  0.00  0.00     0.032 C 
BRANCH  12  13
ATOM     13  C   UNL d   1      13.093 -16.478  13.335  0.00  0.00     0.002 C 
BRANCH  13  14
ATOM     14  C   UNL d   1      12.279 -16.535  13.913  0.00  0.00    -0.000 C 
BRANCH  14  15
ATOM     15  C   UNL d   1      11.568 -17.209  13.710  0.00  0.00    -0.005 C 
ATOM     16  C   UNL d   1      11.583 -18.102  14.159  0.00  0.00     0.005 C 
ENDBRANCH  14  15
ENDBRANCH  13  14
ENDBRANCH  12  13
ENDBRANCH   7  12
ENDBRANCH   6   7
ENDBRANCH   1   6
BRANCH   1  17
ATOM     17  C   UNL d   1      15.675 -15.751  14.972  0.00  0.00     0.037 C 
BRANCH  17  18
ATOM     18  C   UNL d   1      15.420 -14.953  15.519  0.00  0.00     0.041 C 
BRANCH  18  19
ATOM     19  C   UNL d   1      15.552 -14.963  16.510  0.00  0.00    -0.055 A 
ATOM     20  C   UNL d   1      16.301 -14.442  16.919  0.00  0.00     0.046 A 
ATOM     21  C   UNL d   1      16.433 -14.452  17.911  0.00  0.00     0.101 A 
ATOM     22  C   UNL d   1      15.817 -14.983  18.492  0.00  0.00     0.099 A 
ATOM     23  C   UNL d   1      15.069 -15.504  18.082  0.00  0.00     0.040 A 
ATOM     24  C   UNL d   1      14.936 -15.494  17.091  0.00  0.00     0.010 A 
BRANCH  21  25
ATOM     25  O   UNL d   1      17.182 -13.930  18.320  0.00  0.00    -0.353 OA
ATOM     26  C   UNL d   1      17.894 -13.537  17.739  0.00  0.00     0.210 C 
ENDBRANCH  21  25
BRANCH  22  27
ATOM     27  O   UNL d   1      15.950 -14.993  19.483  0.00  0.00    -0.358 OA
ATOM     28  H   UNL d   1      15.568 -15.322  19.844  0.00  0.00     0.217 HD
ENDBRANCH  22  27
ENDBRANCH  18  19
ENDBRANCH  17  18
ENDBRANCH   1  17
TORSDOF 15
ENDMDL
MODEL 3
REMARK VINA RESULT:    -6.882     20.091     23.283
REMARK INTER + INTRA:          -0.579
REMARK INTER:                 -12.785
REMARK INTRA:                  12.207
REMARK UNBOUND:                12.138
REMARK  15 active torsions:
REMARK  status: ('A' for Active; 'I' for Inactive)
REMARK    1  A    between atoms: O_1  and  C_7 
REMARK    2  A    between atoms: O_1  and  C_18 
REMARK    3  A    between atoms: O_2  and  C_9 
REMARK    4  A    between atoms: O_2  and  C_20 
REMARK    5  A    between atoms: O_5  and  C_22 
REMARK    6  A    between atoms: O_6  and  C_25 
REMARK    7  A    between atoms: C_7  and  C_8 
REMARK    8  A    between atoms: C_7  and  C_10 
REMARK    9  A    between atoms: C_8  and  C_9 
REMARK   10  A    between atoms: C_9  and  C_11 
REMARK   11  A    between atoms: C_10  and  C_12 
REMARK   12  A    between atoms: C_11  and  C_14 
REMARK   13  A    between atoms: C_12  and  C_13 
REMARK   14  A    between atoms: C_13  and  C_15 
REMARK   15  A    between atoms: C_14  and  C_16 
ROOT
ATOM      1  C   UNL d   1      32.111 -13.318  -0.864  0.00  0.00     0.134 C 
ENDROOT
BRANCH   1   2
ATOM      2  O   UNL d   1      32.412 -12.934  -1.738  0.00  0.00    -0.316 OA
BRANCH   2   3
ATOM      3  C   UNL d   1      31.864 -13.078  -2.562  0.00  0.00     0.255 C 
ATOM      4  O   UNL d   1      31.816 -13.986  -2.978  0.00  0.00    -0.266 OA
ATOM      5  C   UNL d   1      31.364 -12.314  -2.970  0.00  0.00     0.126 C 
ENDBRANCH   2   3
ENDBRANCH   1   2
BRANCH   1   6
ATOM      6  C   UNL d   1      32.668 -14.010  -0.404  0.00  0.00     0.065 C 
BRANCH   6   7
ATOM      7  C   UNL d   1      33.638 -13.837  -0.231  0.00  0.00     0.134 C 
BRANCH   7   8
ATOM      8  O   UNL d   1      33.939 -12.932   0.068  0.00  0.00    -0.316 OA
BRANCH   8   9
ATOM      9  C   UNL d   1      34.658 -12.847   0.757  0.00  0.00     0.255 C 
ATOM     10  O   UNL d   1      35.618 -12.812   0.476  0.00  0.00    -0.266 OA
ATOM     11  C   UNL d   1      34.419 -12.796   1.727  0.00  0.00     0.126 C 
ENDBRANCH   8   9
ENDBRANCH   7   8
BRANCH   7  12
ATOM     12  C   UNL d   1      34.306 -14.570  -0.357  0.00  0.00     0.032 C 
BRANCH  12  13
ATOM     13  C   UNL d   1      34.014 -15.526  -0.316  0.00  0.00     0.002 C 
BRANCH  13  14
ATOM     14  C   UNL d   1      34.690 -16.259  -0.393  0.00  0.00    -0.000 C 
BRANCH  14  15
ATOM     15  C   UNL d   1      35.087 -16.662   0.431  0.00  0.00    -0.005 C 
ATOM     16  C   UNL d   1      35.728 -17.426   0.356  0.00  0.00     0.005 C 
ENDBRANCH  14  15
ENDBRANCH  13  14
ENDBRANCH  12  13
ENDBRANCH   7  12
ENDBRANCH   6   7
ENDBRANCH   1   6
BRANCH   1  17
ATOM     17  C   UNL d   1      31.254 -13.010  -0.451  0.00  0.00     0.037 C 
BRANCH  17  18
ATOM     18  C   UNL d   1      30.966 -13.376   0.434  0.00  0.00     0.041 C 
BRANCH  18  19
ATOM     19  C   UNL d   1      30.212 -12.946   0.931  0.00  0.00    -0.055 A 
ATOM     20  C   UNL d   1      30.312 -12.016   1.284  0.00  0.00     0.046 A 
ATOM     21  C   UNL d   1      29.558 -11.586   1.781  0.00  0.00     0.101 A 
ATOM     22  C   UNL d   1      28.704 -12.087   1.924  0.00  0.00     0.099 A 
ATOM     23  C   UNL d   1      28.605 -13.017   1.571  0.00  0.00     0.040 A 
ATOM     24  C   UNL d   1      29.359 -13.447   1.074  0.00  0.00     0.010 A 
BRANCH  21  25
ATOM     25  O   UNL d   1      29.657 -10.656   2.134  0.00  0.00    -0.353 OA
ATOM     26  C   UNL d   1      30.237  -9.998   1.653  0.00  0.00     0.210 C 
ENDBRANCH  21  25
BRANCH  22  27
ATOM     27  O   UNL d   1      27.950 -11.657   2.421  0.00  0.00    -0.358 OA
ATOM     28  H   UNL d   1      27.785 -11.074   2.291  0.00  0.00     0.217 HD
ENDBRANCH  22  27
ENDBRANCH  18  19
ENDBRANCH  17  18
ENDBRANCH   1  17
TORSDOF 15
ENDMDL
MODEL 4
REMARK VINA RESULT:    -6.881      1.550      3.620
REMARK INTER + INTRA:          -0.575
REMARK INTER:                 -12.712
REMARK INTRA:                  12.136
REMARK UNBOUND:                12.138
REMARK  15 active torsions:
REMARK  status: ('A' for Active; 'I' for Inactive)
REMARK    1  A    between atoms: O_1  and  C_7 
REMARK    2  A    between atoms: O_1  and  C_18 
REMARK    3  A    between atoms: O_2  and  C_9 
REMARK    4  A    between atoms: O_2  and  C_20 
REMARK    5  A    between atoms: O_5  and  C_22 
REMARK    6  A    between atoms: O_6  and  C_25 
REMARK    7  A    between atoms: C_7  and  C_8 
REMARK    8  A    between atoms: C_7  and  C_10 
REMARK    9  A    between atoms: C_8  and  C_9 
REMARK   10  A    between atoms: C_9  and  C_11 
REMARK   11  A    between atoms: C_10  and  C_12 
REMARK   12  A    between atoms: C_11  and  C_14 
REMARK   13  A    between atoms: C_12  and  C_13 
REMARK   14  A    between atoms: C_13  and  C_15 
REMARK   15  A    between atoms: C_14  and  C_16 
ROOT
ATOM      1  C   UNL d   1      15.468 -15.323  13.386  0.00  0.00     0.134 C 
ENDROOT
BRANCH   1   2
ATOM      2  O   UNL d   1      15.286 -14.936  12.481  0.00  0.00    -0.316 OA
BRANCH   2   3
ATOM      3  C   UNL d   1      15.834 -15.223  11.696  0.00  0.00     0.255 C 
ATOM      4  O   UNL d   1      16.561 -14.630  11.349  0.00  0.00    -0.266 OA
ATOM      5  C   UNL d   1      15.655 -16.104  11.256  0.00  0.00     0.126 C 
ENDBRANCH   2   3
ENDBRANCH   1   2
BRANCH   1   6
ATOM      6  C   UNL d   1      14.716 -15.688  13.934  0.00  0.00     0.065 C 
BRANCH   6   7
ATOM      7  C   UNL d   1      13.886 -15.146  14.067  0.00  0.00     0.134 C 
BRANCH   7   8
ATOM      8  O   UNL d   1      13.942 -14.242  14.490  0.00  0.00    -0.316 OA
BRANCH   8   9
ATOM      9  C   UNL d   1      13.364 -14.021  15.276  0.00  0.00     0.255 C 
ATOM     10  O   UNL d   1      12.531 -13.481  15.148  0.00  0.00    -0.266 OA
ATOM     11  C   UNL d   1      13.618 -14.339  16.189  0.00  0.00     0.126 C 
ENDBRANCH   8   9
ENDBRANCH   7   8
BRANCH   7  12
ATOM     12  C   UNL d   1      13.000 -15.509  13.778  0.00  0.00     0.032 C 
BRANCH  12  13
ATOM     13  C   UNL d   1      12.836 -16.495  13.791  0.00  0.00     0.002 C 
BRANCH  13  14
ATOM     14  C   UNL d   1      11.909 -16.849  13.664  0.00  0.00    -0.000 C 
BRANCH  14  15
ATOM     15  C   UNL d   1      11.611 -17.661  14.167  0.00  0.00    -0.005 C 
ATOM     16  C   UNL d   1      11.246 -18.450  13.672  0.00  0.00     0.005 C 
ENDBRANCH  14  15
ENDBRANCH  13  14
ENDBRANCH  12  13
ENDBRANCH   7  12
ENDBRANCH   6   7
ENDBRANCH   1   6
BRANCH   1  17
ATOM     17  C   UNL d   1      16.402 -15.345  13.741  0.00  0.00     0.037 C 
BRANCH  17  18
ATOM     18  C   UNL d   1      16.595 -15.792  14.615  0.00  0.00     0.041 C 
BRANCH  18  19
ATOM     19  C   UNL d   1      17.403 -15.531  15.143  0.00  0.00    -0.055 A 
ATOM     20  C   UNL d   1      17.299 -15.031  16.002  0.00  0.00     0.046 A 
ATOM     21  C   UNL d   1      18.107 -14.770  16.530  0.00  0.00     0.101 A 
ATOM     22  C   UNL d   1      19.020 -15.010  16.198  0.00  0.00     0.099 A 
ATOM     23  C   UNL d   1      19.124 -15.510  15.338  0.00  0.00     0.040 A 
ATOM     24  C   UNL d   1      18.315 -15.770  14.811  0.00  0.00     0.010 A 
BRANCH  21  25
ATOM     25  O   UNL d   1      18.003 -14.270  17.390  0.00  0.00    -0.353 OA
ATOM     26  C   UNL d   1      17.090 -14.089  17.756  0.00  0.00     0.210 C 
ENDBRANCH  21  25
BRANCH  22  27
ATOM     27  O   UNL d   1      19.828 -14.749  16.726  0.00  0.00    -0.358 OA
ATOM     28  H   UNL d   1      19.778 -14.634  17.333  0.00  0.00     0.217 HD
ENDBRANCH  22  27
ENDBRANCH  18  19
ENDBRANCH  17  18
ENDBRANCH   1  17
TORSDOF 15
ENDMDL
MODEL 5
REMARK VINA RESULT:    -6.861     19.946     23.093
REMARK INTER + INTRA:          -0.538
REMARK INTER:                 -12.699
REMARK INTRA:                  12.161
REMARK UNBOUND:                12.138
REMARK  15 active torsions:
REMARK  status: ('A' for Active; 'I' for Inactive)
REMARK    1  A    between atoms: O_1  and  C_7 
REMARK    2  A    between atoms: O_1  and  C_18 
REMARK    3  A    between atoms: O_2  and  C_9 
REMARK    4  A    between atoms: O_2  and  C_20 
REMARK    5  A    between atoms: O_5  and  C_22 
REMARK    6  A    between atoms: O_6  and  C_25 
REMARK    7  A    between atoms: C_7  and  C_8 
REMARK    8  A    between atoms: C_7  and  C_10 
REMARK    9  A    between atoms: C_8  and  C_9 
REMARK   10  A    between atoms: C_9  and  C_11 
REMARK   11  A    between atoms: C_10  and  C_12 
REMARK   12  A    between atoms: C_11  and  C_14 
REMARK   13  A    between atoms: C_12  and  C_13 
REMARK   14  A    between atoms: C_13  and  C_15 
REMARK   15  A    between atoms: C_14  and  C_16 
ROOT
ATOM      1  C   UNL d   1      32.540 -13.085   0.494  0.00  0.00     0.134 C 
ENDROOT
BRANCH   1   2
ATOM      2  O   UNL d   1      33.361 -12.821   1.000  0.00  0.00    -0.316 OA
BRANCH   2   3
ATOM      3  C   UNL d   1      33.380 -11.960   1.509  0.00  0.00     0.255 C 
ATOM      4  O   UNL d   1      33.327 -11.089   1.020  0.00  0.00    -0.266 OA
ATOM      5  C   UNL d   1      33.450 -11.971   2.506  0.00  0.00     0.126 C 
ENDBRANCH   2   3
ENDBRANCH   1   2
BRANCH   1   6
ATOM      6  C   UNL d   1      32.597 -13.281  -0.485  0.00  0.00     0.065 C 
BRANCH   6   7
ATOM      7  C   UNL d   1      33.356 -13.827  -0.842  0.00  0.00     0.134 C 
BRANCH   7   8
ATOM      8  O   UNL d   1      34.057 -13.396  -1.411  0.00  0.00    -0.316 OA
BRANCH   8   9
ATOM      9  C   UNL d   1      33.795 -12.908  -2.243  0.00  0.00     0.255 C 
ATOM     10  O   UNL d   1      33.254 -13.371  -2.945  0.00  0.00    -0.266 OA
ATOM     11  C   UNL d   1      34.074 -11.957  -2.374  0.00  0.00     0.126 C 
ENDBRANCH   8   9
ENDBRANCH   7   8
BRANCH   7  12
ATOM     12  C   UNL d   1      33.414 -14.802  -0.630  0.00  0.00     0.032 C 
BRANCH  12  13
ATOM     13  C   UNL d   1      34.297 -15.270  -0.663  0.00  0.00     0.002 C 
BRANCH  13  14
ATOM     14  C   UNL d   1      34.388 -16.194  -0.292  0.00  0.00    -0.000 C 
BRANCH  14  15
ATOM     15  C   UNL d   1      35.087 -16.390   0.396  0.00  0.00    -0.005 C 
ATOM     16  C   UNL d   1      35.588 -17.255   0.367  0.00  0.00     0.005 C 
ENDBRANCH  14  15
ENDBRANCH  13  14
ENDBRANCH  12  13
ENDBRANCH   7  12
ENDBRANCH   6   7
ENDBRANCH   1   6
BRANCH   1  17
ATOM     17  C   UNL d   1      31.661 -13.152   0.966  0.00  0.00     0.037 C 
BRANCH  17  18
ATOM     18  C   UNL d   1      30.811 -12.980   0.468  0.00  0.00     0.041 C 
BRANCH  18  19
ATOM     19  C   UNL d   1      29.982 -12.728   0.967  0.00  0.00    -0.055 A 
ATOM     20  C   UNL d   1      29.843 -11.782   1.261  0.00  0.00     0.046 A 
ATOM     21  C   UNL d   1      29.013 -11.530   1.759  0.00  0.00     0.101 A 
ATOM     22  C   UNL d   1      28.323 -12.224   1.964  0.00  0.00     0.099 A 
ATOM     23  C   UNL d   1      28.462 -13.170   1.670  0.00  0.00     0.040 A 
ATOM     24  C   UNL d   1      29.291 -13.422   1.171  0.00  0.00     0.010 A 
BRANCH  21  25
ATOM     25  O   UNL d   1      28.875 -10.585   2.053  0.00  0.00    -0.353 OA
ATOM     26  C   UNL d   1      29.343  -9.840   1.579  0.00  0.00     0.210 C 
ENDBRANCH  21  25
BRANCH  22  27
ATOM     27  O   UNL d   1      27.493 -11.972   2.462  0.00  0.00    -0.358 OA
ATOM     28  H   UNL d   1      27.483 -11.455   2.805  0.00  0.00     0.217 HD
ENDBRANCH  22  27
ENDBRANCH  18  19
ENDBRANCH  17  18
ENDBRANCH   1  17
TORSDOF 15
ENDMDL
