MODEL 1
REMARK VINA RESULT:    -6.499      0.000      0.000
REMARK INTER + INTRA:          -4.101
REMARK INTER:                  -7.068
REMARK INTRA:                   2.966
REMARK UNBOUND:                 2.967
REMARK  2 active torsions:
REMARK  status: ('A' for Active; 'I' for Inactive)
REMARK    1  A    between atoms: O_1  and  C_6 
REMARK    2  A    between atoms: C_2  and  C_3 
ROOT
ATOM      1  C   UNL d   1       0.394  -7.519   2.072  0.00  0.00    -0.022 A 
ATOM      2  C   UNL d   1       1.240  -7.909   2.435  0.00  0.00     0.072 A 
ATOM      3  C   UNL d   1      -0.125  -6.858   2.614  0.00  0.00     0.011 A 
ATOM      4  C   UNL d   1       1.047  -6.978   3.883  0.00  0.00    -0.059 A 
ATOM      5  C   UNL d   1       1.567  -7.638   3.341  0.00  0.00     0.043 A 
ATOM      6  C   UNL d   1       0.201  -6.588   3.519  0.00  0.00     0.007 A 
ATOM      7  C   UNL d   1       1.374  -6.707   4.789  0.00  0.00     0.048 C 
ENDROOT
BRANCH   1   8
ATOM      8  C   UNL d   1       0.067  -7.789   1.166  0.00  0.00     0.013 C 
ATOM      9  C   UNL d   1       0.371  -7.289   0.355  0.00  0.00     0.015 C 
ATOM     10  C   UNL d   1      -0.563  -8.560   1.071  0.00  0.00     0.015 C 
ENDBRANCH   1   8
BRANCH   2  11
ATOM     11  O   UNL d   1       1.759  -8.569   1.893  0.00  0.00    -0.360 OA
ATOM     12  H   UNL d   1       2.248  -8.859   2.142  0.00  0.00     0.217 HD
ENDBRANCH   2  11
TORSDOF 2
ENDMDL
MODEL 2
REMARK VINA RESULT:    -6.473      2.338      3.283
REMARK INTER + INTRA:          -4.074
REMARK INTER:                  -7.040
REMARK INTRA:                   2.966
REMARK UNBOUND:                 2.967
REMARK  2 active torsions:
REMARK  status: ('A' for Active; 'I' for Inactive)
REMARK    1  A    between atoms: O_1  and  C_6 
REMARK    2  A    between atoms: C_2  and  C_3 
ROOT
ATOM      1  C   UNL d   1      -1.308  -7.670   1.746  0.00  0.00    -0.022 A 
ATOM      2  C   UNL d   1      -2.122  -8.066   1.320  0.00  0.00     0.072 A 
ATOM      3  C   UNL d   1      -1.404  -7.043   2.520  0.00  0.00     0.011 A 
ATOM      4  C   UNL d   1      -3.126  -7.207   2.439  0.00  0.00    -0.059 A 
ATOM      5  C   UNL d   1      -3.031  -7.834   1.666  0.00  0.00     0.043 A 
ATOM      6  C   UNL d   1      -2.313  -6.812   2.866  0.00  0.00     0.007 A 
ATOM      7  C   UNL d   1      -4.036  -6.976   2.786  0.00  0.00     0.048 C 
ENDROOT
BRANCH   1   8
ATOM      8  C   UNL d   1      -0.399  -7.901   1.400  0.00  0.00     0.013 C 
ATOM      9  C   UNL d   1       0.023  -7.339   0.689  0.00  0.00     0.015 C 
ATOM     10  C   UNL d   1       0.088  -8.695   1.764  0.00  0.00     0.015 C 
ENDBRANCH   1   8
BRANCH   2  11
ATOM     11  O   UNL d   1      -2.026  -8.693   0.547  0.00  0.00    -0.360 OA
ATOM     12  H   UNL d   1      -1.775  -8.494   0.015  0.00  0.00     0.217 HD
ENDBRANCH   2  11
TORSDOF 2
ENDMDL
MODEL 3
REMARK VINA RESULT:    -6.213     30.419     31.629
REMARK INTER + INTRA:          -3.791
REMARK INTER:                  -6.758
REMARK INTRA:                   2.967
REMARK UNBOUND:                 2.967
REMARK  2 active torsions:
REMARK  status: ('A' for Active; 'I' for Inactive)
REMARK    1  A    between atoms: O_1  and  C_6 
REMARK    2  A    between atoms: C_2  and  C_3 
ROOT
ATOM      1  C   UNL d   1      -7.138  12.161  25.882  0.00  0.00    -0.022 A 
ATOM      2  C   UNL d   1      -8.053  12.561  25.937  0.00  0.00     0.072 A 
ATOM      3  C   UNL d   1      -6.908  11.540  25.133  0.00  0.00     0.011 A 
ATOM      4  C   UNL d   1      -8.508  11.718  24.494  0.00  0.00    -0.059 A 
ATOM      5  C   UNL d   1      -8.738  12.339  25.243  0.00  0.00     0.043 A 
ATOM      6  C   UNL d   1      -7.593  11.318  24.439  0.00  0.00     0.007 A 
ATOM      7  C   UNL d   1      -9.193  11.496  23.800  0.00  0.00     0.048 C 
ENDROOT
BRANCH   1   8
ATOM      8  C   UNL d   1      -6.453  12.383  26.576  0.00  0.00     0.013 C 
ATOM      9  C   UNL d   1      -6.355  11.802  27.385  0.00  0.00     0.015 C 
ATOM     10  C   UNL d   1      -5.867  13.184  26.462  0.00  0.00     0.015 C 
ENDBRANCH   1   8
BRANCH   2  11
ATOM     11  O   UNL d   1      -8.283  13.182  26.686  0.00  0.00    -0.360 OA
ATOM     12  H   UNL d   1      -7.924  13.673  26.803  0.00  0.00     0.217 HD
ENDBRANCH   2  11
TORSDOF 2
ENDMDL
MODEL 4
REMARK VINA RESULT:    -6.125     29.495     31.308
REMARK INTER + INTRA:          -3.695
REMARK INTER:                  -6.682
REMARK INTRA:                   2.987
REMARK UNBOUND:                 2.967
REMARK  2 active torsions:
REMARK  status: ('A' for Active; 'I' for Inactive)
REMARK    1  A    between atoms: O_1  and  C_6 
REMARK    2  A    between atoms: C_2  and  C_3 
ROOT
ATOM      1  C   UNL d   1      -5.565  12.091  26.371  0.00  0.00    -0.022 A 
ATOM      2  C   UNL d   1      -4.581  12.268  26.367  0.00  0.00     0.072 A 
ATOM      3  C   UNL d   1      -5.999  11.667  25.576  0.00  0.00     0.011 A 
ATOM      4  C   UNL d   1      -4.466  11.599  24.774  0.00  0.00    -0.059 A 
ATOM      5  C   UNL d   1      -4.031  12.022  25.569  0.00  0.00     0.043 A 
ATOM      6  C   UNL d   1      -5.450  11.421  24.777  0.00  0.00     0.007 A 
ATOM      7  C   UNL d   1      -3.916  11.353  23.975  0.00  0.00     0.048 C 
ENDROOT
BRANCH   1   8
ATOM      8  C   UNL d   1      -6.114  12.337  27.169  0.00  0.00     0.013 C 
ATOM      9  C   UNL d   1      -6.631  13.193  27.176  0.00  0.00     0.015 C 
ATOM     10  C   UNL d   1      -6.147  11.727  27.961  0.00  0.00     0.015 C 
ENDBRANCH   1   8
BRANCH   2  11
ATOM     11  O   UNL d   1      -4.146  12.692  27.162  0.00  0.00    -0.360 OA
ATOM     12  H   UNL d   1      -4.350  13.238  27.373  0.00  0.00     0.217 HD
ENDBRANCH   2  11
TORSDOF 2
ENDMDL
MODEL 5
REMARK VINA RESULT:    -6.025     29.873     31.343
REMARK INTER + INTRA:          -3.586
REMARK INTER:                  -6.571
REMARK INTRA:                   2.985
REMARK UNBOUND:                 2.967
REMARK  2 active torsions:
REMARK  status: ('A' for Active; 'I' for Inactive)
REMARK    1  A    between atoms: O_1  and  C_6 
REMARK    2  A    between atoms: C_2  and  C_3 
ROOT
ATOM      1  C   UNL d   1      -6.730  12.124  26.143  0.00  0.00    -0.022 A 
ATOM      2  C   UNL d   1      -6.265  11.784  25.325  0.00  0.00     0.072 A 
ATOM      3  C   UNL d   1      -7.728  12.188  26.161  0.00  0.00     0.011 A 
ATOM      4  C   UNL d   1      -7.796  11.572  24.544  0.00  0.00    -0.059 A 
ATOM      5  C   UNL d   1      -6.798  11.508  24.526  0.00  0.00     0.043 A 
ATOM      6  C   UNL d   1      -8.261  11.912  25.361  0.00  0.00     0.007 A 
ATOM      7  C   UNL d   1      -8.329  11.296  23.744  0.00  0.00     0.048 C 
ENDROOT
BRANCH   1   8
ATOM      8  C   UNL d   1      -6.197  12.399  26.943  0.00  0.00     0.013 C 
ATOM      9  C   UNL d   1      -5.789  13.312  26.981  0.00  0.00     0.015 C 
ATOM     10  C   UNL d   1      -6.071  11.763  27.704  0.00  0.00     0.015 C 
ENDBRANCH   1   8
BRANCH   2  11
ATOM     11  O   UNL d   1      -5.267  11.720  25.307  0.00  0.00    -0.360 OA
ATOM     12  H   UNL d   1      -4.986  11.210  25.520  0.00  0.00     0.217 HD
ENDBRANCH   2  11
TORSDOF 2
ENDMDL
