MODEL 1
REMARK VINA RESULT:     0.000      0.000      0.000
REMARK INTER + INTRA:           0.141
REMARK INTER:                   0.000
REMARK INTRA:                   0.141
REMARK UNBOUND:                 0.141
REMARK  1 active torsions:
REMARK  status: ('A' for Active; 'I' for Inactive)
REMARK    1  A    between atoms: C_2  and  C_8 
ROOT
ATOM      1  C   UNL d   1       3.124  20.666  -9.622  0.00  0.00     0.002 A 
ATOM      2  C   UNL d   1       2.752  20.170 -10.407  0.00  0.00     0.014 A 
ATOM      3  C   UNL d   1       3.817  20.238  -9.043  0.00  0.00     0.014 A 
ATOM      4  C   UNL d   1       3.074  19.246 -10.613  0.00  0.00     0.001 A 
ATOM      5  C   UNL d   1       4.138  19.313  -9.248  0.00  0.00     0.001 A 
ATOM      6  C   UNL d   1       3.767  18.818 -10.033  0.00  0.00     0.000 A 
ENDROOT
BRANCH   1   7
ATOM      7  C   UNL d   1       2.802  21.590  -9.417  0.00  0.00     0.269 C 
ATOM      8  O   UNL d   1       2.017  21.724  -8.812  0.00  0.00    -0.301 OA
ENDBRANCH   1   7
TORSDOF 1
ENDMDL
MODEL 2
REMARK VINA RESULT:     0.000      3.214      3.888
REMARK INTER + INTRA:           0.141
REMARK INTER:                   0.000
REMARK INTRA:                   0.141
REMARK UNBOUND:                 0.141
REMARK  1 active torsions:
REMARK  status: ('A' for Active; 'I' for Inactive)
REMARK    1  A    between atoms: C_2  and  C_8 
ROOT
ATOM      1  C   UNL d   1       2.132  21.167  -6.675  0.00  0.00     0.002 A 
ATOM      2  C   UNL d   1       2.642  20.310  -6.747  0.00  0.00     0.014 A 
ATOM      3  C   UNL d   1       1.931  21.554  -5.775  0.00  0.00     0.014 A 
ATOM      4  C   UNL d   1       2.952  19.840  -5.921  0.00  0.00     0.001 A 
ATOM      5  C   UNL d   1       2.241  21.084  -4.948  0.00  0.00     0.001 A 
ATOM      6  C   UNL d   1       2.751  20.227  -5.021  0.00  0.00     0.000 A 
ENDROOT
BRANCH   1   7
ATOM      7  C   UNL d   1       1.823  21.636  -7.501  0.00  0.00     0.269 C 
ATOM      8  O   UNL d   1       2.411  22.316  -7.940  0.00  0.00    -0.301 OA
ENDBRANCH   1   7
TORSDOF 1
ENDMDL
MODEL 3
REMARK VINA RESULT:     0.000     53.203     53.904
REMARK INTER + INTRA:           0.141
REMARK INTER:                   0.000
REMARK INTRA:                   0.141
REMARK UNBOUND:                 0.141
REMARK  1 active torsions:
REMARK  status: ('A' for Active; 'I' for Inactive)
REMARK    1  A    between atoms: C_2  and  C_8 
ROOT
ATOM      1  C   UNL d   1     -30.966  25.908  31.962  0.00  0.00     0.002 A 
ATOM      2  C   UNL d   1     -30.333  25.654  31.231  0.00  0.00     0.014 A 
ATOM      3  C   UNL d   1     -31.086  26.870  32.208  0.00  0.00     0.014 A 
ATOM      4  C   UNL d   1     -29.819  26.362  30.747  0.00  0.00     0.001 A 
ATOM      5  C   UNL d   1     -30.572  27.578  31.724  0.00  0.00     0.001 A 
ATOM      6  C   UNL d   1     -29.938  27.324  30.993  0.00  0.00     0.000 A 
ENDROOT
BRANCH   1   7
ATOM      7  C   UNL d   1     -31.480  25.201  32.447  0.00  0.00     0.269 C 
ATOM      8  O   UNL d   1     -31.097  24.778  33.268  0.00  0.00    -0.301 OA
ENDBRANCH   1   7
TORSDOF 1
ENDMDL
MODEL 4
REMARK VINA RESULT:     0.000     37.401     37.720
REMARK INTER + INTRA:           0.141
REMARK INTER:                   0.000
REMARK INTRA:                   0.141
REMARK UNBOUND:                 0.141
REMARK  1 active torsions:
REMARK  status: ('A' for Active; 'I' for Inactive)
REMARK    1  A    between atoms: C_2  and  C_8 
ROOT
ATOM      1  C   UNL d   1     -14.524   0.033  16.111  0.00  0.00     0.002 A 
ATOM      2  C   UNL d   1     -14.136  -0.706  16.663  0.00  0.00     0.014 A 
ATOM      3  C   UNL d   1     -15.422   0.409  16.339  0.00  0.00     0.014 A 
ATOM      4  C   UNL d   1     -14.647  -1.069  17.442  0.00  0.00     0.001 A 
ATOM      5  C   UNL d   1     -15.933   0.046  17.119  0.00  0.00     0.001 A 
ATOM      6  C   UNL d   1     -15.545  -0.693  17.670  0.00  0.00     0.000 A 
ENDROOT
BRANCH   1   7
ATOM      7  C   UNL d   1     -14.013   0.396  15.332  0.00  0.00     0.269 C 
ATOM      8  O   UNL d   1     -14.133  -0.006  14.424  0.00  0.00    -0.301 OA
ENDBRANCH   1   7
TORSDOF 1
ENDMDL
MODEL 5
REMARK VINA RESULT:     0.000     39.325     39.599
REMARK INTER + INTRA:           0.141
REMARK INTER:                   0.000
REMARK INTRA:                   0.141
REMARK UNBOUND:                 0.141
REMARK  1 active torsions:
REMARK  status: ('A' for Active; 'I' for Inactive)
REMARK    1  A    between atoms: C_2  and  C_8 
ROOT
ATOM      1  C   UNL d   1     -16.670   0.940  17.961  0.00  0.00     0.002 A 
ATOM      2  C   UNL d   1     -16.282   0.202  18.513  0.00  0.00     0.014 A 
ATOM      3  C   UNL d   1     -17.568   1.316  18.189  0.00  0.00     0.014 A 
ATOM      4  C   UNL d   1     -16.793  -0.161  19.292  0.00  0.00     0.001 A 
ATOM      5  C   UNL d   1     -18.079   0.953  18.969  0.00  0.00     0.001 A 
ATOM      6  C   UNL d   1     -17.691   0.214  19.520  0.00  0.00     0.000 A 
ENDROOT
BRANCH   1   7
ATOM      7  C   UNL d   1     -16.159   1.304  17.182  0.00  0.00     0.269 C 
ATOM      8  O   UNL d   1     -16.280   0.901  16.274  0.00  0.00    -0.301 OA
ENDBRANCH   1   7
TORSDOF 1
ENDMDL
