MODEL 1
REMARK VINA RESULT:     0.000      0.000      0.000
REMARK INTER + INTRA:           2.033
REMARK INTER:                   0.000
REMARK INTRA:                   2.033
REMARK UNBOUND:                 2.033
REMARK  2 active torsions:
REMARK  status: ('A' for Active; 'I' for Inactive)
REMARK    1  A    between atoms: O_1  and  C_6 
REMARK    2  A    between atoms: O_1  and  C_13 
ROOT
ATOM      1  C   UNL d   1      20.762 -21.171 -23.417  0.00  0.00    -0.010 A 
ATOM      2  C   UNL d   1      22.256 -20.647 -24.650  0.00  0.00    -0.034 A 
ATOM      3  C   UNL d   1      21.698 -20.858 -23.576  0.00  0.00    -0.004 A 
ATOM      4  C   UNL d   1      19.708 -21.493 -24.428  0.00  0.00     0.141 A 
ATOM      5  C   UNL d   1      20.875 -21.170 -21.933  0.00  0.00     0.013 A 
ATOM      6  C   UNL d   1      20.385 -21.253 -25.124  0.00  0.00     0.038 A 
ATOM      7  C   UNL d   1      21.812 -20.857 -22.092  0.00  0.00     0.006 A 
ATOM      8  C   UNL d   1      19.825 -21.484 -23.259  0.00  0.00     0.018 C 
ATOM      9  C   UNL d   1      23.156 -20.343 -24.961  0.00  0.00     0.016 C 
ATOM     10  C   UNL d   1      22.247 -20.626 -25.649  0.00  0.00     0.016 C 
ENDROOT
BRANCH   4  11
ATOM     11  O   UNL d   1      18.759 -21.806 -24.443  0.00  0.00    -0.316 OA
BRANCH  11  12
ATOM     12  C   UNL d   1      18.341 -22.091 -25.304  0.00  0.00     0.255 C 
ATOM     13  O   UNL d   1      18.507 -23.011 -25.661  0.00  0.00    -0.266 OA
ATOM     14  C   UNL d   1      17.755 -21.458 -25.811  0.00  0.00     0.126 C 
ENDBRANCH  11  12
ENDBRANCH   4  11
TORSDOF 2
ENDMDL
MODEL 2
REMARK VINA RESULT:     0.000     58.022     59.717
REMARK INTER + INTRA:           2.033
REMARK INTER:                   0.000
REMARK INTRA:                   2.033
REMARK UNBOUND:                 2.033
REMARK  2 active torsions:
REMARK  status: ('A' for Active; 'I' for Inactive)
REMARK    1  A    between atoms: O_1  and  C_6 
REMARK    2  A    between atoms: O_1  and  C_13 
ROOT
ATOM      1  C   UNL d   1      -5.360  -4.136  27.204  0.00  0.00    -0.010 A 
ATOM      2  C   UNL d   1      -7.131  -3.199  27.316  0.00  0.00    -0.034 A 
ATOM      3  C   UNL d   1      -6.212  -3.926  27.684  0.00  0.00    -0.004 A 
ATOM      4  C   UNL d   1      -4.901  -3.640  25.870  0.00  0.00     0.141 A 
ATOM      5  C   UNL d   1      -4.832  -5.035  28.266  0.00  0.00     0.013 A 
ATOM      6  C   UNL d   1      -5.761  -3.131  25.829  0.00  0.00     0.038 A 
ATOM      7  C   UNL d   1      -5.684  -4.826  28.746  0.00  0.00     0.006 A 
ATOM      8  C   UNL d   1      -4.508  -4.345  26.724  0.00  0.00     0.018 C 
ATOM      9  C   UNL d   1      -8.016  -2.900  27.672  0.00  0.00     0.016 C 
ATOM     10  C   UNL d   1      -7.543  -2.585  26.643  0.00  0.00     0.016 C 
ENDROOT
BRANCH   4  11
ATOM     11  O   UNL d   1      -4.112  -3.744  25.267  0.00  0.00    -0.316 OA
BRANCH  11  12
ATOM     12  C   UNL d   1      -4.008  -3.147  24.472  0.00  0.00     0.255 C 
ATOM     13  O   UNL d   1      -3.631  -2.227  24.582  0.00  0.00    -0.266 OA
ATOM     14  C   UNL d   1      -4.282  -3.469  23.565  0.00  0.00     0.126 C 
ENDBRANCH  11  12
ENDBRANCH   4  11
TORSDOF 2
ENDMDL
MODEL 3
REMARK VINA RESULT:     0.000     72.054     73.291
REMARK INTER + INTRA:           2.033
REMARK INTER:                   0.000
REMARK INTRA:                   2.033
REMARK UNBOUND:                 2.033
REMARK  2 active torsions:
REMARK  status: ('A' for Active; 'I' for Inactive)
REMARK    1  A    between atoms: O_1  and  C_6 
REMARK    2  A    between atoms: O_1  and  C_13 
ROOT
ATOM      1  C   UNL d   1     -35.095  11.739   8.781  0.00  0.00    -0.010 A 
ATOM      2  C   UNL d   1     -35.517  13.453   7.825  0.00  0.00    -0.034 A 
ATOM      3  C   UNL d   1     -35.293  12.251   7.944  0.00  0.00    -0.004 A 
ATOM      4  C   UNL d   1     -35.003  12.253  10.182  0.00  0.00     0.141 A 
ATOM      5  C   UNL d   1     -34.955  10.424   8.098  0.00  0.00     0.013 A 
ATOM      6  C   UNL d   1     -35.209  13.156   9.802  0.00  0.00     0.038 A 
ATOM      7  C   UNL d   1     -35.153  10.936   7.261  0.00  0.00     0.006 A 
ATOM      8  C   UNL d   1     -34.898  11.228   9.617  0.00  0.00     0.018 C 
ATOM      9  C   UNL d   1     -35.723  14.089   7.082  0.00  0.00     0.016 C 
ATOM     10  C   UNL d   1     -35.624  14.365   8.220  0.00  0.00     0.016 C 
ENDROOT
BRANCH   4  11
ATOM     11  O   UNL d   1     -34.823  11.896  11.098  0.00  0.00    -0.316 OA
BRANCH  11  12
ATOM     12  C   UNL d   1     -34.668  12.526  11.858  0.00  0.00     0.255 C 
ATOM     13  O   UNL d   1     -33.768  12.941  11.990  0.00  0.00    -0.266 OA
ATOM     14  C   UNL d   1     -35.414  12.741  12.488  0.00  0.00     0.126 C 
ENDBRANCH  11  12
ENDBRANCH   4  11
TORSDOF 2
ENDMDL
MODEL 4
REMARK VINA RESULT:     0.000     62.924     63.797
REMARK INTER + INTRA:           2.033
REMARK INTER:                   0.000
REMARK INTRA:                   2.033
REMARK UNBOUND:                 2.033
REMARK  2 active torsions:
REMARK  status: ('A' for Active; 'I' for Inactive)
REMARK    1  A    between atoms: O_1  and  C_6 
REMARK    2  A    between atoms: O_1  and  C_13 
ROOT
ATOM      1  C   UNL d   1     -18.878  22.085   2.217  0.00  0.00    -0.010 A 
ATOM      2  C   UNL d   1     -19.471  20.456   1.205  0.00  0.00    -0.034 A 
ATOM      3  C   UNL d   1     -19.416  21.245   2.146  0.00  0.00    -0.004 A 
ATOM      4  C   UNL d   1     -17.950  22.680   1.206  0.00  0.00     0.141 A 
ATOM      5  C   UNL d   1     -19.349  22.425   3.587  0.00  0.00     0.013 A 
ATOM      6  C   UNL d   1     -18.182  21.902   0.622  0.00  0.00     0.038 A 
ATOM      7  C   UNL d   1     -19.888  21.584   3.516  0.00  0.00     0.006 A 
ATOM      8  C   UNL d   1     -18.340  22.925   2.288  0.00  0.00     0.018 C 
ATOM      9  C   UNL d   1     -19.945  19.603   0.992  0.00  0.00     0.016 C 
ATOM     10  C   UNL d   1     -19.195  20.170   0.288  0.00  0.00     0.016 C 
ENDROOT
BRANCH   4  11
ATOM     11  O   UNL d   1     -17.358  23.480   1.117  0.00  0.00    -0.316 OA
BRANCH  11  12
ATOM     12  C   UNL d   1     -16.957  23.709   0.230  0.00  0.00     0.255 C 
ATOM     13  O   UNL d   1     -17.498  24.202  -0.451  0.00  0.00    -0.266 OA
ATOM     14  C   UNL d   1     -16.015  23.444   0.024  0.00  0.00     0.126 C 
ENDBRANCH  11  12
ENDBRANCH   4  11
TORSDOF 2
ENDMDL
MODEL 5
REMARK VINA RESULT:     0.000     22.000     23.566
REMARK INTER + INTRA:           2.033
REMARK INTER:                   0.000
REMARK INTRA:                   2.033
REMARK UNBOUND:                 2.033
REMARK  2 active torsions:
REMARK  status: ('A' for Active; 'I' for Inactive)
REMARK    1  A    between atoms: O_1  and  C_6 
REMARK    2  A    between atoms: O_1  and  C_13 
ROOT
ATOM      1  C   UNL d   1       1.634 -31.656 -13.697  0.00  0.00    -0.010 A 
ATOM      2  C   UNL d   1       1.754 -30.737 -11.917  0.00  0.00    -0.034 A 
ATOM      3  C   UNL d   1       1.598 -31.673 -12.697  0.00  0.00    -0.004 A 
ATOM      4  C   UNL d   1       1.890 -30.490 -14.596  0.00  0.00     0.141 A 
ATOM      5  C   UNL d   1       1.357 -33.110 -13.860  0.00  0.00     0.013 A 
ATOM      6  C   UNL d   1       1.970 -29.940 -13.765  0.00  0.00     0.038 A 
ATOM      7  C   UNL d   1       1.321 -33.126 -12.860  0.00  0.00     0.006 A 
ATOM      8  C   UNL d   1       1.670 -31.640 -14.696  0.00  0.00     0.018 C 
ATOM      9  C   UNL d   1       1.748 -30.600 -10.927  0.00  0.00     0.016 C 
ATOM     10  C   UNL d   1       1.936 -29.770 -11.738  0.00  0.00     0.016 C 
ENDROOT
BRANCH   4  11
ATOM     11  O   UNL d   1       1.959 -30.304 -15.576  0.00  0.00    -0.316 OA
BRANCH  11  12
ATOM     12  C   UNL d   1       1.988 -29.360 -15.904  0.00  0.00     0.255 C 
ATOM     13  O   UNL d   1       1.141 -28.837 -16.002  0.00  0.00    -0.266 OA
ATOM     14  C   UNL d   1       2.865 -28.938 -16.136  0.00  0.00     0.126 C 
ENDBRANCH  11  12
ENDBRANCH   4  11
TORSDOF 2
ENDMDL
