MODEL 1
REMARK VINA RESULT:   -14.515      0.000      0.000
REMARK INTER + INTRA:         -15.691
REMARK INTER:                 -16.241
REMARK INTRA:                   0.550
REMARK UNBOUND:                 0.521
REMARK  3 active torsions:
REMARK  status: ('A' for Active; 'I' for Inactive)
REMARK    1  A    between atoms: C_21  and  O_1 
REMARK    2  A    between atoms: O_2  and  C_31 
REMARK    3  A    between atoms: C_17  and  C_31 
ROOT
ATOM      1  C   UNL d   1       9.436  19.660   9.454  0.00  0.00    -0.028 A 
ATOM      2  C   UNL d   1      10.088  19.121   9.987  0.00  0.00     0.007 A 
ATOM      3  C   UNL d   1      10.918  18.685   9.534  0.00  0.00    -0.035 A 
ATOM      4  C   UNL d   1       8.643  20.073   9.903  0.00  0.00    -0.013 A 
ATOM      5  C   UNL d   1      11.072  18.813   8.512  0.00  0.00     0.004 A 
ATOM      6  C   UNL d   1       9.570  19.801   8.430  0.00  0.00     0.011 A 
ATOM      7  C   UNL d   1       8.502  19.945  10.885  0.00  0.00    -0.069 A 
ATOM      8  C   UNL d   1      10.393  19.375   7.957  0.00  0.00     0.007 A 
ATOM      9  C   UNL d   1      11.930  18.368   8.018  0.00  0.00    -0.017 A 
ATOM     10  C   UNL d   1       7.681  20.369  11.366  0.00  0.00     0.038 A 
ATOM     11  C   UNL d   1       9.946  18.993  10.969  0.00  0.00     0.033 A 
ATOM     12  C   UNL d   1       7.973  20.632   9.334  0.00  0.00     0.016 A 
ATOM     13  C   UNL d   1      11.612  18.104  10.133  0.00  0.00     0.012 A 
ATOM     14  C   UNL d   1       6.998  20.932  10.817  0.00  0.00     0.053 A 
ATOM     15  C   UNL d   1       7.145  21.065   9.794  0.00  0.00     0.022 A 
ATOM     16  C   UNL d   1       9.008  20.111   8.671  0.00  0.00     0.016 C 
ATOM     17  C   UNL d   1       9.153  19.406  11.418  0.00  0.00    -0.022 A 
ATOM     18  C   UNL d   1      12.637  17.783   8.596  0.00  0.00     0.126 A 
ATOM     19  C   UNL d   1      10.770  18.562  10.516  0.00  0.00     0.016 C 
ATOM     20  C   UNL d   1      12.477  17.650   9.661  0.00  0.00     0.033 A 
ATOM     21  C   UNL d   1       7.548  20.217  12.432  0.00  0.00    -0.005 A 
ATOM     22  C   UNL d   1       8.491  20.380   8.963  0.00  0.00     0.021 C 
ATOM     23  C   UNL d   1       6.135  21.383  11.296  0.00  0.00     0.021 A 
ATOM     24  C   UNL d   1       6.693  20.658  12.933  0.00  0.00    -0.014 A 
ATOM     25  C   UNL d   1      12.467  18.206   7.190  0.00  0.00     0.018 C 
ATOM     26  C   UNL d   1      11.632  18.755   7.145  0.00  0.00     0.018 C 
ATOM     27  C   UNL d   1       5.981  21.245  12.362  0.00  0.00     0.006 A 
ATOM     28  C   UNL d   1       8.210  19.674  12.950  0.00  0.00     0.011 C 
ATOM     29  C   UNL d   1       6.562  20.524  13.915  0.00  0.00     0.010 C 
ENDROOT
BRANCH  14  30
ATOM     30  C   UNL d   1       6.342  21.473  10.291  0.00  0.00     0.149 C 
ATOM     31  O   UNL d   1       6.417  22.470  10.273  0.00  0.00    -0.649 OA
BRANCH  30  32
ATOM     32  O   UNL d   1       5.612  21.018   9.782  0.00  0.00    -0.776 OA
ATOM     33  H   UNL d   1       5.600  20.399   9.743  0.00  0.00     0.167 HD
ENDBRANCH  30  32
ENDBRANCH  14  30
BRANCH  18  34
ATOM     34  O   UNL d   1      13.431  17.369   8.152  0.00  0.00    -0.395 OA
ATOM     35  H   UNL d   1      13.585  17.535   7.574  0.00  0.00     0.210 HD
ENDBRANCH  18  34
TORSDOF 3
ENDMDL
MODEL 2
REMARK VINA RESULT:   -14.128     48.408     49.977
REMARK INTER + INTRA:         -15.258
REMARK INTER:                 -15.791
REMARK INTRA:                   0.532
REMARK UNBOUND:                 0.521
REMARK  3 active torsions:
REMARK  status: ('A' for Active; 'I' for Inactive)
REMARK    1  A    between atoms: C_21  and  O_1 
REMARK    2  A    between atoms: O_2  and  C_31 
REMARK    3  A    between atoms: C_17  and  C_31 
ROOT
ATOM      1  C   UNL d   1      10.455 -25.266  30.706  0.00  0.00    -0.028 A 
ATOM      2  C   UNL d   1      10.925 -26.038  31.133  0.00  0.00     0.007 A 
ATOM      3  C   UNL d   1      11.755 -25.888  31.744  0.00  0.00    -0.035 A 
ATOM      4  C   UNL d   1       9.659 -25.425  30.122  0.00  0.00    -0.013 A 
ATOM      5  C   UNL d   1      12.099 -24.919  31.914  0.00  0.00     0.004 A 
ATOM      6  C   UNL d   1      10.782 -24.289  30.862  0.00  0.00     0.011 A 
ATOM      7  C   UNL d   1       9.334 -26.358  29.964  0.00  0.00    -0.069 A 
ATOM      8  C   UNL d   1      11.610 -24.115  31.469  0.00  0.00     0.007 A 
ATOM      9  C   UNL d   1      12.962 -24.739  32.547  0.00  0.00    -0.017 A 
ATOM     10  C   UNL d   1       8.507 -26.540  29.357  0.00  0.00     0.038 A 
ATOM     11  C   UNL d   1      10.599 -26.971  30.975  0.00  0.00     0.033 A 
ATOM     12  C   UNL d   1       9.180 -24.610  29.685  0.00  0.00     0.016 A 
ATOM     13  C   UNL d   1      12.248 -26.742  32.196  0.00  0.00     0.012 A 
ATOM     14  C   UNL d   1       8.012 -25.740  28.910  0.00  0.00     0.053 A 
ATOM     15  C   UNL d   1       8.351 -24.769  29.074  0.00  0.00     0.022 A 
ATOM     16  C   UNL d   1      10.234 -24.324  30.452  0.00  0.00     0.016 C 
ATOM     17  C   UNL d   1       9.804 -27.130  30.390  0.00  0.00    -0.022 A 
ATOM     18  C   UNL d   1      13.472 -25.576  33.010  0.00  0.00     0.126 A 
ATOM     19  C   UNL d   1      11.423 -26.817  31.582  0.00  0.00     0.016 C 
ATOM     20  C   UNL d   1      13.113 -26.585  32.833  0.00  0.00     0.033 A 
ATOM     21  C   UNL d   1       8.172 -27.559  29.201  0.00  0.00    -0.005 A 
ATOM     22  C   UNL d   1       9.715 -24.428  30.071  0.00  0.00     0.021 C 
ATOM     23  C   UNL d   1       7.148 -25.905  28.274  0.00  0.00     0.021 A 
ATOM     24  C   UNL d   1       7.311 -27.749  28.569  0.00  0.00    -0.014 A 
ATOM     25  C   UNL d   1      13.607 -24.105  32.974  0.00  0.00     0.018 C 
ATOM     26  C   UNL d   1      12.875 -23.755  32.389  0.00  0.00     0.018 C 
ATOM     27  C   UNL d   1       6.795 -26.916  28.102  0.00  0.00     0.006 A 
ATOM     28  C   UNL d   1       8.655 -28.321  29.635  0.00  0.00     0.011 C 
ATOM     29  C   UNL d   1       6.994 -28.686  28.418  0.00  0.00     0.010 C 
ENDROOT
BRANCH  14  30
ATOM     30  C   UNL d   1       7.537 -24.972  28.480  0.00  0.00     0.149 C 
ATOM     31  O   UNL d   1       7.774 -24.697  27.548  0.00  0.00    -0.649 OA
BRANCH  30  32
ATOM     32  O   UNL d   1       6.825 -24.481  28.980  0.00  0.00    -0.776 OA
ATOM     33  H   UNL d   1       6.741 -24.588  29.585  0.00  0.00     0.167 HD
ENDBRANCH  30  32
ENDBRANCH  14  30
BRANCH  18  34
ATOM     34  O   UNL d   1      14.267 -25.421  33.595  0.00  0.00    -0.395 OA
ATOM     35  H   UNL d   1      14.682 -24.985  33.446  0.00  0.00     0.210 HD
ENDBRANCH  18  34
TORSDOF 3
ENDMDL
MODEL 3
REMARK VINA RESULT:   -13.688     37.163     38.409
REMARK INTER + INTRA:         -14.767
REMARK INTER:                 -15.345
REMARK INTRA:                   0.578
REMARK UNBOUND:                 0.521
REMARK  3 active torsions:
REMARK  status: ('A' for Active; 'I' for Inactive)
REMARK    1  A    between atoms: C_21  and  O_1 
REMARK    2  A    between atoms: O_2  and  C_31 
REMARK    3  A    between atoms: C_17  and  C_31 
ROOT
ATOM      1  C   UNL d   1      34.926  32.250  34.779  0.00  0.00    -0.028 A 
ATOM      2  C   UNL d   1      33.988  31.908  34.742  0.00  0.00     0.007 A 
ATOM      3  C   UNL d   1      33.547  31.652  33.834  0.00  0.00    -0.035 A 
ATOM      4  C   UNL d   1      35.337  32.491  35.658  0.00  0.00    -0.013 A 
ATOM      5  C   UNL d   1      34.091  31.755  32.951  0.00  0.00     0.004 A 
ATOM      6  C   UNL d   1      35.490  32.360  33.909  0.00  0.00     0.011 A 
ATOM      7  C   UNL d   1      34.808  32.390  36.501  0.00  0.00    -0.069 A 
ATOM      8  C   UNL d   1      35.069  32.111  32.990  0.00  0.00     0.007 A 
ATOM      9  C   UNL d   1      33.652  31.495  31.993  0.00  0.00    -0.017 A 
ATOM     10  C   UNL d   1      35.222  32.637  37.425  0.00  0.00     0.038 A 
ATOM     11  C   UNL d   1      33.459  31.807  35.585  0.00  0.00     0.033 A 
ATOM     12  C   UNL d   1      36.316  32.846  35.680  0.00  0.00     0.016 A 
ATOM     13  C   UNL d   1      32.526  31.283  33.819  0.00  0.00     0.012 A 
ATOM     14  C   UNL d   1      36.199  32.994  37.471  0.00  0.00     0.053 A 
ATOM     15  C   UNL d   1      36.750  33.099  36.592  0.00  0.00     0.022 A 
ATOM     16  C   UNL d   1      35.832  32.544  34.473  0.00  0.00     0.016 C 
ATOM     17  C   UNL d   1      33.869  32.048  36.465  0.00  0.00    -0.022 A 
ATOM     18  C   UNL d   1      32.634  31.124  31.954  0.00  0.00     0.126 A 
ATOM     19  C   UNL d   1      33.024  31.554  34.681  0.00  0.00     0.016 C 
ATOM     20  C   UNL d   1      32.067  31.017  32.872  0.00  0.00     0.033 A 
ATOM     21  C   UNL d   1      34.630  32.519  38.325  0.00  0.00    -0.005 A 
ATOM     22  C   UNL d   1      36.100  32.701  35.047  0.00  0.00     0.021 C 
ATOM     23  C   UNL d   1      36.652  33.258  38.421  0.00  0.00     0.021 A 
ATOM     24  C   UNL d   1      35.060  32.777  39.287  0.00  0.00    -0.014 A 
ATOM     25  C   UNL d   1      33.724  31.415  31.000  0.00  0.00     0.018 C 
ATOM     26  C   UNL d   1      34.501  31.752  31.532  0.00  0.00     0.018 C 
ATOM     27  C   UNL d   1      36.079  33.149  39.335  0.00  0.00     0.006 A 
ATOM     28  C   UNL d   1      33.691  32.175  38.270  0.00  0.00     0.011 C 
ATOM     29  C   UNL d   1      34.523  32.672  40.124  0.00  0.00     0.010 C 
ENDROOT
BRANCH  14  30
ATOM     30  C   UNL d   1      37.138  33.337  37.515  0.00  0.00     0.149 C 
ATOM     31  O   UNL d   1      37.883  32.721  37.772  0.00  0.00    -0.649 OA
BRANCH  30  32
ATOM     32  O   UNL d   1      37.331  34.295  37.304  0.00  0.00    -0.776 OA
ATOM     33  H   UNL d   1      37.917  34.484  37.233  0.00  0.00     0.167 HD
ENDBRANCH  30  32
ENDBRANCH  14  30
BRANCH  18  34
ATOM     34  O   UNL d   1      32.220  30.881  31.077  0.00  0.00    -0.395 OA
ATOM     35  H   UNL d   1      31.625  31.017  30.966  0.00  0.00     0.210 HD
ENDBRANCH  18  34
TORSDOF 3
ENDMDL
MODEL 4
REMARK VINA RESULT:   -13.661     48.438     50.230
REMARK INTER + INTRA:         -14.737
REMARK INTER:                 -15.261
REMARK INTRA:                   0.525
REMARK UNBOUND:                 0.521
REMARK  3 active torsions:
REMARK  status: ('A' for Active; 'I' for Inactive)
REMARK    1  A    between atoms: C_21  and  O_1 
REMARK    2  A    between atoms: O_2  and  C_31 
REMARK    3  A    between atoms: C_17  and  C_31 
ROOT
ATOM      1  C   UNL d   1      10.500 -25.234  30.782  0.00  0.00    -0.028 A 
ATOM      2  C   UNL d   1      10.116 -26.141  30.607  0.00  0.00     0.007 A 
ATOM      3  C   UNL d   1       9.261 -26.257  30.024  0.00  0.00    -0.035 A 
ATOM      4  C   UNL d   1      11.321 -25.139  31.344  0.00  0.00    -0.013 A 
ATOM      5  C   UNL d   1       8.799 -25.416  29.617  0.00  0.00     0.004 A 
ATOM      6  C   UNL d   1      10.054 -24.380  30.385  0.00  0.00     0.011 A 
ATOM      7  C   UNL d   1      11.759 -25.950  31.731  0.00  0.00    -0.069 A 
ATOM      8  C   UNL d   1       9.198 -24.472  29.799  0.00  0.00     0.007 A 
ATOM      9  C   UNL d   1       7.907 -25.512  29.006  0.00  0.00    -0.017 A 
ATOM     10  C   UNL d   1      12.616 -25.866  32.319  0.00  0.00     0.038 A 
ATOM     11  C   UNL d   1      10.554 -26.952  30.994  0.00  0.00     0.033 A 
ATOM     12  C   UNL d   1      11.709 -24.187  31.517  0.00  0.00     0.016 A 
ATOM     13  C   UNL d   1       8.863 -27.251  29.848  0.00  0.00     0.012 A 
ATOM     14  C   UNL d   1      13.021 -24.925  32.505  0.00  0.00     0.053 A 
ATOM     15  C   UNL d   1      12.564 -24.080  32.102  0.00  0.00     0.022 A 
ATOM     16  C   UNL d   1      10.611 -24.241  30.759  0.00  0.00     0.016 C 
ATOM     17  C   UNL d   1      11.376 -26.857  31.556  0.00  0.00    -0.022 A 
ATOM     18  C   UNL d   1       7.491 -26.495  28.817  0.00  0.00     0.126 A 
ATOM     19  C   UNL d   1       9.705 -27.063  30.414  0.00  0.00     0.016 C 
ATOM     20  C   UNL d   1       7.972 -27.371  29.240  0.00  0.00     0.033 A 
ATOM     21  C   UNL d   1      13.073 -26.760  32.728  0.00  0.00    -0.005 A 
ATOM     22  C   UNL d   1      11.147 -24.178  31.126  0.00  0.00     0.021 C 
ATOM     23  C   UNL d   1      13.912 -24.813  33.114  0.00  0.00     0.021 A 
ATOM     24  C   UNL d   1      13.965 -26.673  33.339  0.00  0.00    -0.014 A 
ATOM     25  C   UNL d   1       7.181 -25.095  28.459  0.00  0.00     0.018 C 
ATOM     26  C   UNL d   1       7.879 -24.520  28.886  0.00  0.00     0.018 C 
ATOM     27  C   UNL d   1      14.387 -25.693  33.534  0.00  0.00     0.006 A 
ATOM     28  C   UNL d   1      12.676 -27.660  32.542  0.00  0.00     0.011 C 
ATOM     29  C   UNL d   1      14.395 -27.492  33.721  0.00  0.00     0.010 C 
ENDROOT
BRANCH  14  30
ATOM     30  C   UNL d   1      13.410 -24.022  32.684  0.00  0.00     0.149 C 
ATOM     31  O   UNL d   1      14.062 -23.622  32.039  0.00  0.00    -0.649 OA
BRANCH  30  32
ATOM     32  O   UNL d   1      13.148 -23.518  33.507  0.00  0.00    -0.776 OA
ATOM     33  H   UNL d   1      13.015 -22.914  33.471  0.00  0.00     0.167 HD
ENDBRANCH  30  32
ENDBRANCH  14  30
BRANCH  18  34
ATOM     34  O   UNL d   1       6.670 -26.595  28.256  0.00  0.00    -0.395 OA
ATOM     35  H   UNL d   1       6.141 -26.795  28.511  0.00  0.00     0.210 HD
ENDBRANCH  18  34
TORSDOF 3
ENDMDL
MODEL 5
REMARK VINA RESULT:   -13.481     37.153     38.516
REMARK INTER + INTRA:         -14.536
REMARK INTER:                 -15.070
REMARK INTRA:                   0.534
REMARK UNBOUND:                 0.521
REMARK  3 active torsions:
REMARK  status: ('A' for Active; 'I' for Inactive)
REMARK    1  A    between atoms: C_21  and  O_1 
REMARK    2  A    between atoms: O_2  and  C_31 
REMARK    3  A    between atoms: C_17  and  C_31 
ROOT
ATOM      1  C   UNL d   1      33.028  32.092  36.520  0.00  0.00    -0.028 A 
ATOM      2  C   UNL d   1      33.264  31.840  35.581  0.00  0.00     0.007 A 
ATOM      3  C   UNL d   1      32.529  31.539  34.907  0.00  0.00    -0.035 A 
ATOM      4  C   UNL d   1      33.744  32.379  37.156  0.00  0.00    -0.013 A 
ATOM      5  C   UNL d   1      31.534  31.500  35.215  0.00  0.00     0.004 A 
ATOM      6  C   UNL d   1      32.040  32.061  36.849  0.00  0.00     0.011 A 
ATOM      7  C   UNL d   1      34.697  32.414  36.853  0.00  0.00    -0.069 A 
ATOM      8  C   UNL d   1      31.289  31.763  36.193  0.00  0.00     0.007 A 
ATOM      9  C   UNL d   1      30.752  31.189  34.531  0.00  0.00    -0.017 A 
ATOM     10  C   UNL d   1      35.454  32.711  37.504  0.00  0.00     0.038 A 
ATOM     11  C   UNL d   1      34.217  31.875  35.279  0.00  0.00     0.033 A 
ATOM     12  C   UNL d   1      33.483  32.639  38.130  0.00  0.00     0.016 A 
ATOM     13  C   UNL d   1      32.809  31.270  33.894  0.00  0.00     0.012 A 
ATOM     14  C   UNL d   1      35.216  32.975  38.483  0.00  0.00     0.053 A 
ATOM     15  C   UNL d   1      34.223  32.939  38.798  0.00  0.00     0.022 A 
ATOM     16  C   UNL d   1      32.477  32.265  37.336  0.00  0.00     0.016 C 
ATOM     17  C   UNL d   1      34.933  32.162  35.915  0.00  0.00    -0.022 A 
ATOM     18  C   UNL d   1      31.008  30.916  33.513  0.00  0.00     0.126 A 
ATOM     19  C   UNL d   1      33.484  31.576  34.612  0.00  0.00     0.016 C 
ATOM     20  C   UNL d   1      32.043  30.956  33.192  0.00  0.00     0.033 A 
ATOM     21  C   UNL d   1      36.480  32.741  37.153  0.00  0.00    -0.005 A 
ATOM     22  C   UNL d   1      32.944  32.453  37.751  0.00  0.00     0.021 C 
ATOM     23  C   UNL d   1      35.987  33.288  39.179  0.00  0.00     0.021 A 
ATOM     24  C   UNL d   1      37.269  33.050  37.831  0.00  0.00    -0.014 A 
ATOM     25  C   UNL d   1      29.788  31.005  34.342  0.00  0.00     0.018 C 
ATOM     26  C   UNL d   1      30.069  31.316  35.250  0.00  0.00     0.018 C 
ATOM     27  C   UNL d   1      37.021  33.325  38.851  0.00  0.00     0.006 A 
ATOM     28  C   UNL d   1      36.698  32.485  36.211  0.00  0.00     0.011 C 
ATOM     29  C   UNL d   1      38.218  33.081  37.518  0.00  0.00     0.010 C 
ENDROOT
BRANCH  14  30
ATOM     30  C   UNL d   1      34.988  33.229  39.423  0.00  0.00     0.149 C 
ATOM     31  O   UNL d   1      34.907  32.521  40.125  0.00  0.00    -0.649 OA
BRANCH  30  32
ATOM     32  O   UNL d   1      34.840  34.188  39.660  0.00  0.00    -0.776 OA
ATOM     33  H   UNL d   1      35.250  34.618  39.482  0.00  0.00     0.167 HD
ENDBRANCH  30  32
ENDBRANCH  14  30
BRANCH  18  34
ATOM     34  O   UNL d   1      30.295  30.628  32.874  0.00  0.00    -0.395 OA
ATOM     35  H   UNL d   1      30.214  30.026  32.750  0.00  0.00     0.210 HD
ENDBRANCH  18  34
TORSDOF 3
ENDMDL
