MODEL 1
REMARK VINA RESULT:   -15.411      0.000      0.000
REMARK INTER + INTRA:         -16.696
REMARK INTER:                 -17.243
REMARK INTRA:                   0.547
REMARK UNBOUND:                 0.516
REMARK  3 active torsions:
REMARK  status: ('A' for Active; 'I' for Inactive)
REMARK    1  A    between atoms: C_21  and  O_1 
REMARK    2  A    between atoms: O_2  and  C_31 
REMARK    3  A    between atoms: C_17  and  C_31 
ROOT
ATOM      1  C   UNL d   1      -3.113   4.796   7.781  0.00  0.00    -0.028 A 
ATOM      2  C   UNL d   1      -2.341   4.794   8.417  0.00  0.00     0.007 A 
ATOM      3  C   UNL d   1      -2.397   4.283   9.324  0.00  0.00    -0.035 A 
ATOM      4  C   UNL d   1      -3.045   5.290   6.915  0.00  0.00    -0.013 A 
ATOM      5  C   UNL d   1      -3.269   3.768   9.571  0.00  0.00     0.004 A 
ATOM      6  C   UNL d   1      -3.994   4.287   8.008  0.00  0.00     0.011 A 
ATOM      7  C   UNL d   1      -2.206   5.782   6.684  0.00  0.00    -0.069 A 
ATOM      8  C   UNL d   1      -4.072   3.771   8.908  0.00  0.00     0.007 A 
ATOM      9  C   UNL d   1      -3.349   3.229  10.509  0.00  0.00    -0.017 A 
ATOM     10  C   UNL d   1      -2.120   6.302   5.785  0.00  0.00     0.038 A 
ATOM     11  C   UNL d   1      -1.502   5.286   8.187  0.00  0.00     0.033 A 
ATOM     12  C   UNL d   1      -3.858   5.283   6.262  0.00  0.00     0.016 A 
ATOM     13  C   UNL d   1      -1.547   4.295   9.998  0.00  0.00     0.012 A 
ATOM     14  C   UNL d   1      -2.920   6.309   5.118  0.00  0.00     0.053 A 
ATOM     15  C   UNL d   1      -3.794   5.796   5.358  0.00  0.00     0.022 A 
ATOM     16  C   UNL d   1      -4.017   4.603   7.400  0.00  0.00     0.016 C 
ATOM     17  C   UNL d   1      -1.434   5.780   7.320  0.00  0.00    -0.022 A 
ATOM     18  C   UNL d   1      -2.512   3.227  11.199  0.00  0.00     0.126 A 
ATOM     19  C   UNL d   1      -1.561   4.778   9.086  0.00  0.00     0.016 C 
ATOM     20  C   UNL d   1      -1.605   3.763  10.942  0.00  0.00     0.033 A 
ATOM     21  C   UNL d   1      -1.200   6.828   5.557  0.00  0.00    -0.005 A 
ATOM     22  C   UNL d   1      -3.973   4.925   6.835  0.00  0.00     0.021 C 
ATOM     23  C   UNL d   1      -2.854   6.842   4.175  0.00  0.00     0.021 A 
ATOM     24  C   UNL d   1      -1.111   7.369   4.621  0.00  0.00    -0.014 A 
ATOM     25  C   UNL d   1      -3.876   2.660  11.140  0.00  0.00     0.018 C 
ATOM     26  C   UNL d   1      -4.279   2.949  10.271  0.00  0.00     0.018 C 
ATOM     27  C   UNL d   1      -1.944   7.376   3.925  0.00  0.00     0.006 A 
ATOM     28  C   UNL d   1      -0.438   6.815   6.205  0.00  0.00     0.011 C 
ATOM     29  C   UNL d   1      -0.267   7.858   4.401  0.00  0.00     0.010 C 
ENDROOT
BRANCH  14  30
ATOM     30  C   UNL d   1      -3.687   6.315   4.476  0.00  0.00     0.149 C 
ATOM     31  O   UNL d   1      -4.326   7.084   4.471  0.00  0.00    -0.649 OA
BRANCH  30  32
ATOM     32  O   UNL d   1      -3.816   5.554   3.842  0.00  0.00    -0.776 OA
ATOM     33  H   UNL d   1      -3.886   4.978   4.059  0.00  0.00     0.167 HD
ENDBRANCH  30  32
ENDBRANCH  14  30
BRANCH  18  34
ATOM     34  O   UNL d   1      -2.576   2.734  12.067  0.00  0.00    -0.395 OA
ATOM     35  H   UNL d   1      -2.974   2.923  12.503  0.00  0.00     0.210 HD
ENDBRANCH  18  34
TORSDOF 3
ENDMDL
MODEL 2
REMARK VINA RESULT:   -15.298      1.389      5.560
REMARK INTER + INTRA:         -16.570
REMARK INTER:                 -17.089
REMARK INTRA:                   0.519
REMARK UNBOUND:                 0.516
REMARK  3 active torsions:
REMARK  status: ('A' for Active; 'I' for Inactive)
REMARK    1  A    between atoms: C_21  and  O_1 
REMARK    2  A    between atoms: O_2  and  C_31 
REMARK    3  A    between atoms: C_17  and  C_31 
ROOT
ATOM      1  C   UNL d   1      -3.077   5.590   6.326  0.00  0.00    -0.028 A 
ATOM      2  C   UNL d   1      -2.176   6.022   6.302  0.00  0.00     0.007 A 
ATOM      3  C   UNL d   1      -1.863   6.559   5.466  0.00  0.00    -0.035 A 
ATOM      4  C   UNL d   1      -3.364   5.077   7.135  0.00  0.00    -0.013 A 
ATOM      5  C   UNL d   1      -2.498   6.649   4.645  0.00  0.00     0.004 A 
ATOM      6  C   UNL d   1      -3.729   5.667   5.516  0.00  0.00     0.011 A 
ATOM      7  C   UNL d   1      -2.750   4.996   7.920  0.00  0.00    -0.069 A 
ATOM      8  C   UNL d   1      -3.436   6.199   4.671  0.00  0.00     0.007 A 
ATOM      9  C   UNL d   1      -2.192   7.204   3.764  0.00  0.00    -0.017 A 
ATOM     10  C   UNL d   1      -3.035   4.465   8.770  0.00  0.00     0.038 A 
ATOM     11  C   UNL d   1      -1.561   5.940   7.086  0.00  0.00     0.033 A 
ATOM     12  C   UNL d   1      -4.307   4.633   7.146  0.00  0.00     0.016 A 
ATOM     13  C   UNL d   1      -0.879   7.019   5.463  0.00  0.00     0.012 A 
ATOM     14  C   UNL d   1      -3.972   4.012   8.802  0.00  0.00     0.053 A 
ATOM     15  C   UNL d   1      -4.613   4.098   7.985  0.00  0.00     0.022 A 
ATOM     16  C   UNL d   1      -3.990   5.302   6.035  0.00  0.00     0.016 C 
ATOM     17  C   UNL d   1      -1.848   5.427   7.895  0.00  0.00    -0.022 A 
ATOM     18  C   UNL d   1      -1.215   7.671   3.737  0.00  0.00     0.126 A 
ATOM     19  C   UNL d   1      -1.253   6.473   6.255  0.00  0.00     0.016 C 
ATOM     20  C   UNL d   1      -0.553   7.579   4.592  0.00  0.00     0.033 A 
ATOM     21  C   UNL d   1      -2.351   4.390   9.608  0.00  0.00    -0.005 A 
ATOM     22  C   UNL d   1      -4.177   4.967   6.562  0.00  0.00     0.021 C 
ATOM     23  C   UNL d   1      -4.292   3.454   9.676  0.00  0.00     0.021 A 
ATOM     24  C   UNL d   1      -2.648   3.837  10.493  0.00  0.00    -0.014 A 
ATOM     25  C   UNL d   1      -2.386   7.545   2.844  0.00  0.00     0.018 C 
ATOM     26  C   UNL d   1      -3.070   6.999   3.329  0.00  0.00     0.018 C 
ATOM     27  C   UNL d   1      -3.625   3.366  10.527  0.00  0.00     0.006 A 
ATOM     28  C   UNL d   1      -1.452   4.828   9.566  0.00  0.00     0.011 C 
ATOM     29  C   UNL d   1      -2.025   3.762  11.272  0.00  0.00     0.010 C 
ENDROOT
BRANCH  14  30
ATOM     30  C   UNL d   1      -4.873   3.578   8.834  0.00  0.00     0.149 C 
ATOM     31  O   UNL d   1      -4.984   2.636   8.519  0.00  0.00    -0.649 OA
BRANCH  30  32
ATOM     32  O   UNL d   1      -5.661   4.086   9.180  0.00  0.00    -0.776 OA
ATOM     33  H   UNL d   1      -5.845   4.605   8.895  0.00  0.00     0.167 HD
ENDBRANCH  30  32
ENDBRANCH  14  30
BRANCH  18  34
ATOM     34  O   UNL d   1      -0.924   8.185   2.931  0.00  0.00    -0.395 OA
ATOM     35  H   UNL d   1      -0.433   8.563   2.963  0.00  0.00     0.210 HD
ENDBRANCH  18  34
TORSDOF 3
ENDMDL
MODEL 3
REMARK VINA RESULT:   -14.738      0.915      6.059
REMARK INTER + INTRA:         -15.945
REMARK INTER:                 -16.466
REMARK INTRA:                   0.521
REMARK UNBOUND:                 0.516
REMARK  3 active torsions:
REMARK  status: ('A' for Active; 'I' for Inactive)
REMARK    1  A    between atoms: C_21  and  O_1 
REMARK    2  A    between atoms: O_2  and  C_31 
REMARK    3  A    between atoms: C_17  and  C_31 
ROOT
ATOM      1  C   UNL d   1      -2.045   5.618   7.235  0.00  0.00    -0.028 A 
ATOM      2  C   UNL d   1      -2.841   5.521   6.639  0.00  0.00     0.007 A 
ATOM      3  C   UNL d   1      -2.877   5.997   5.713  0.00  0.00    -0.035 A 
ATOM      4  C   UNL d   1      -2.024   5.155   8.122  0.00  0.00    -0.013 A 
ATOM      5  C   UNL d   1      -2.071   6.582   5.405  0.00  0.00     0.004 A 
ATOM      6  C   UNL d   1      -1.228   6.197   6.947  0.00  0.00     0.011 A 
ATOM      7  C   UNL d   1      -2.801   4.595   8.411  0.00  0.00    -0.069 A 
ATOM      8  C   UNL d   1      -1.242   6.682   6.026  0.00  0.00     0.007 A 
ATOM      9  C   UNL d   1      -2.087   7.088   4.445  0.00  0.00    -0.017 A 
ATOM     10  C   UNL d   1      -2.795   4.106   9.331  0.00  0.00     0.038 A 
ATOM     11  C   UNL d   1      -3.618   4.962   6.929  0.00  0.00     0.033 A 
ATOM     12  C   UNL d   1      -1.187   5.265   8.732  0.00  0.00     0.016 A 
ATOM     13  C   UNL d   1      -3.752   5.878   5.083  0.00  0.00     0.012 A 
ATOM     14  C   UNL d   1      -1.968   4.202   9.958  0.00  0.00     0.053 A 
ATOM     15  C   UNL d   1      -1.159   4.785   9.656  0.00  0.00     0.022 A 
ATOM     16  C   UNL d   1      -1.146   5.910   7.564  0.00  0.00     0.016 C 
ATOM     17  C   UNL d   1      -3.598   4.498   7.815  0.00  0.00    -0.022 A 
ATOM     18  C   UNL d   1      -2.950   6.983   3.798  0.00  0.00     0.126 A 
ATOM     19  C   UNL d   1      -3.650   5.436   6.010  0.00  0.00     0.016 C 
ATOM     20  C   UNL d   1      -3.789   6.374   4.119  0.00  0.00     0.033 A 
ATOM     21  C   UNL d   1      -3.648   3.505   9.624  0.00  0.00    -0.005 A 
ATOM     22  C   UNL d   1      -1.133   5.608   8.142  0.00  0.00     0.021 C 
ATOM     23  C   UNL d   1      -1.938   3.703  10.921  0.00  0.00     0.021 A 
ATOM     24  C   UNL d   1      -3.641   2.996  10.582  0.00  0.00    -0.014 A 
ATOM     25  C   UNL d   1      -1.647   7.678   3.769  0.00  0.00     0.018 C 
ATOM     26  C   UNL d   1      -1.178   7.464   4.626  0.00  0.00     0.018 C 
ATOM     27  C   UNL d   1      -2.781   3.096  11.235  0.00  0.00     0.006 A 
ATOM     28  C   UNL d   1      -4.437   3.420   9.014  0.00  0.00     0.011 C 
ATOM     29  C   UNL d   1      -4.424   2.439  10.861  0.00  0.00     0.010 C 
ENDROOT
BRANCH  14  30
ATOM     30  C   UNL d   1      -1.175   4.294  10.560  0.00  0.00     0.149 C 
ATOM     31  O   UNL d   1      -0.417   3.645  10.489  0.00  0.00    -0.649 OA
BRANCH  30  32
ATOM     32  O   UNL d   1      -1.139   5.033  11.232  0.00  0.00    -0.776 OA
ATOM     33  H   UNL d   1      -0.790   5.534  11.124  0.00  0.00     0.167 HD
ENDBRANCH  30  32
ENDBRANCH  14  30
BRANCH  18  34
ATOM     34  O   UNL d   1      -2.975   7.444   2.911  0.00  0.00    -0.395 OA
ATOM     35  H   UNL d   1      -3.181   8.028   2.870  0.00  0.00     0.210 HD
ENDBRANCH  18  34
TORSDOF 3
ENDMDL
MODEL 4
REMARK VINA RESULT:   -14.619      1.153      6.155
REMARK INTER + INTRA:         -15.812
REMARK INTER:                 -16.333
REMARK INTRA:                   0.522
REMARK UNBOUND:                 0.516
REMARK  3 active torsions:
REMARK  status: ('A' for Active; 'I' for Inactive)
REMARK    1  A    between atoms: C_21  and  O_1 
REMARK    2  A    between atoms: O_2  and  C_31 
REMARK    3  A    between atoms: C_17  and  C_31 
ROOT
ATOM      1  C   UNL d   1      -2.085   4.961   8.383  0.00  0.00    -0.028 A 
ATOM      2  C   UNL d   1      -2.953   4.644   7.999  0.00  0.00     0.007 A 
ATOM      3  C   UNL d   1      -3.276   4.974   7.065  0.00  0.00    -0.035 A 
ATOM      4  C   UNL d   1      -1.788   4.636   9.281  0.00  0.00    -0.013 A 
ATOM      5  C   UNL d   1      -2.687   5.641   6.523  0.00  0.00     0.004 A 
ATOM      6  C   UNL d   1      -1.481   5.628   7.859  0.00  0.00     0.011 A 
ATOM      7  C   UNL d   1      -2.358   3.996   9.795  0.00  0.00    -0.069 A 
ATOM      8  C   UNL d   1      -1.784   5.970   6.923  0.00  0.00     0.007 A 
ATOM      9  C   UNL d   1      -3.004   5.997   5.548  0.00  0.00    -0.017 A 
ATOM     10  C   UNL d   1      -2.062   3.649  10.731  0.00  0.00     0.038 A 
ATOM     11  C   UNL d   1      -3.523   4.004   8.513  0.00  0.00     0.033 A 
ATOM     12  C   UNL d   1      -0.882   4.975   9.667  0.00  0.00     0.016 A 
ATOM     13  C   UNL d   1      -4.221   4.617   6.669  0.00  0.00     0.012 A 
ATOM     14  C   UNL d   1      -1.160   3.974  11.138  0.00  0.00     0.053 A 
ATOM     15  C   UNL d   1      -0.565   4.641  10.602  0.00  0.00     0.022 A 
ATOM     16  C   UNL d   1      -1.216   5.448   8.465  0.00  0.00     0.016 C 
ATOM     17  C   UNL d   1      -3.226   3.679   9.411  0.00  0.00    -0.022 A 
ATOM     18  C   UNL d   1      -3.944   5.655   5.132  0.00  0.00     0.126 A 
ATOM     19  C   UNL d   1      -3.841   4.333   7.585  0.00  0.00     0.016 C 
ATOM     20  C   UNL d   1      -4.558   4.959   5.696  0.00  0.00     0.033 A 
ATOM     21  C   UNL d   1      -2.697   2.954  11.270  0.00  0.00    -0.005 A 
ATOM     22  C   UNL d   1      -1.022   5.237   9.050  0.00  0.00     0.021 C 
ATOM     23  C   UNL d   1      -0.830   3.626  12.111  0.00  0.00     0.021 A 
ATOM     24  C   UNL d   1      -2.388   2.593  12.246  0.00  0.00    -0.014 A 
ATOM     25  C   UNL d   1      -2.842   6.556   4.735  0.00  0.00     0.018 C 
ATOM     26  C   UNL d   1      -2.172   6.549   5.477  0.00  0.00     0.018 C 
ATOM     27  C   UNL d   1      -1.448   2.931  12.669  0.00  0.00     0.006 A 
ATOM     28  C   UNL d   1      -3.562   2.648  10.871  0.00  0.00     0.011 C 
ATOM     29  C   UNL d   1      -2.967   1.952  12.751  0.00  0.00     0.010 C 
ENDROOT
BRANCH  14  30
ATOM     30  C   UNL d   1      -0.293   4.285  11.528  0.00  0.00     0.149 C 
ATOM     31  O   UNL d   1       0.545   3.768  11.358  0.00  0.00    -0.649 OA
BRANCH  30  32
ATOM     32  O   UNL d   1      -0.266   5.113  12.087  0.00  0.00    -0.776 OA
ATOM     33  H   UNL d   1      -0.774   5.462  12.150  0.00  0.00     0.167 HD
ENDBRANCH  30  32
ENDBRANCH  14  30
BRANCH  18  34
ATOM     34  O   UNL d   1      -4.245   5.976   4.235  0.00  0.00    -0.395 OA
ATOM     35  H   UNL d   1      -4.849   5.977   4.091  0.00  0.00     0.210 HD
ENDBRANCH  18  34
TORSDOF 3
ENDMDL
MODEL 5
REMARK VINA RESULT:   -14.584      1.603      2.956
REMARK INTER + INTRA:         -15.773
REMARK INTER:                 -16.347
REMARK INTRA:                   0.575
REMARK UNBOUND:                 0.516
REMARK  3 active torsions:
REMARK  status: ('A' for Active; 'I' for Inactive)
REMARK    1  A    between atoms: C_21  and  O_1 
REMARK    2  A    between atoms: O_2  and  C_31 
REMARK    3  A    between atoms: C_17  and  C_31 
ROOT
ATOM      1  C   UNL d   1      -2.641   3.805  10.046  0.00  0.00    -0.028 A 
ATOM      2  C   UNL d   1      -1.809   4.304  10.290  0.00  0.00     0.007 A 
ATOM      3  C   UNL d   1      -1.340   4.146  11.206  0.00  0.00    -0.035 A 
ATOM      4  C   UNL d   1      -3.080   3.966   9.163  0.00  0.00    -0.013 A 
ATOM      5  C   UNL d   1      -1.743   3.460  11.879  0.00  0.00     0.004 A 
ATOM      6  C   UNL d   1      -3.062   3.114  10.703  0.00  0.00     0.011 A 
ATOM      7  C   UNL d   1      -2.688   4.626   8.522  0.00  0.00    -0.069 A 
ATOM      8  C   UNL d   1      -2.610   2.941  11.625  0.00  0.00     0.007 A 
ATOM      9  C   UNL d   1      -1.272   3.280  12.840  0.00  0.00    -0.017 A 
ATOM     10  C   UNL d   1      -3.134   4.805   7.598  0.00  0.00     0.038 A 
ATOM     11  C   UNL d   1      -1.416   4.964   9.649  0.00  0.00     0.033 A 
ATOM     12  C   UNL d   1      -3.947   3.439   8.924  0.00  0.00     0.016 A 
ATOM     13  C   UNL d   1      -0.438   4.699  11.448  0.00  0.00     0.012 A 
ATOM     14  C   UNL d   1      -4.001   4.290   7.338  0.00  0.00     0.053 A 
ATOM     15  C   UNL d   1      -4.410   3.602   8.005  0.00  0.00     0.022 A 
ATOM     16  C   UNL d   1      -3.414   3.174  10.119  0.00  0.00     0.016 C 
ATOM     17  C   UNL d   1      -1.856   5.125   8.765  0.00  0.00    -0.022 A 
ATOM     18  C   UNL d   1      -0.370   3.821  13.103  0.00  0.00     0.126 A 
ATOM     19  C   UNL d   1      -0.953   4.805  10.561  0.00  0.00     0.016 C 
ATOM     20  C   UNL d   1       0.050   4.536  12.403  0.00  0.00     0.033 A 
ATOM     21  C   UNL d   1      -2.690   5.526   6.920  0.00  0.00    -0.005 A 
ATOM     22  C   UNL d   1      -3.700   3.279   9.542  0.00  0.00     0.021 C 
ATOM     23  C   UNL d   1      -4.483   4.459   6.381  0.00  0.00     0.021 A 
ATOM     24  C   UNL d   1      -3.155   5.712   5.957  0.00  0.00    -0.014 A 
ATOM     25  C   UNL d   1      -1.249   2.804  13.718  0.00  0.00     0.018 C 
ATOM     26  C   UNL d   1      -1.981   2.612  13.065  0.00  0.00     0.018 C 
ATOM     27  C   UNL d   1      -4.058   5.175   5.686  0.00  0.00     0.006 A 
ATOM     28  C   UNL d   1      -1.857   6.016   7.180  0.00  0.00     0.011 C 
ATOM     29  C   UNL d   1      -2.753   6.374   5.325  0.00  0.00     0.010 C 
ENDROOT
BRANCH  14  30
ATOM     30  C   UNL d   1      -4.833   3.795   7.087  0.00  0.00     0.149 C 
ATOM     31  O   UNL d   1      -5.719   4.098   7.438  0.00  0.00    -0.649 OA
BRANCH  30  32
ATOM     32  O   UNL d   1      -4.779   2.997   6.487  0.00  0.00    -0.776 OA
ATOM     33  H   UNL d   1      -5.128   2.970   5.976  0.00  0.00     0.167 HD
ENDBRANCH  30  32
ENDBRANCH  14  30
BRANCH  18  34
ATOM     34  O   UNL d   1       0.072   3.663  13.986  0.00  0.00    -0.395 OA
ATOM     35  H   UNL d   1       0.522   4.043  14.181  0.00  0.00     0.210 HD
ENDBRANCH  18  34
TORSDOF 3
ENDMDL
