MODEL 1
REMARK VINA RESULT:    -9.028      0.000      0.000
REMARK INTER + INTRA:          -6.299
REMARK INTER:                  -9.860
REMARK INTRA:                   3.560
REMARK UNBOUND:                 3.520
REMARK  2 active torsions:
REMARK  status: ('A' for Active; 'I' for Inactive)
REMARK    1  A    between atoms: C_5  and  O_1 
REMARK    2  A    between atoms: C_4  and  C_9 
ROOT
ATOM      1  C   UNL d   1      10.008   9.489 -12.929  0.00  0.00     0.028 A 
ATOM      2  C   UNL d   1       9.456  10.108 -12.370  0.00  0.00     0.019 A 
ATOM      3  C   UNL d   1       9.256  11.032 -12.696  0.00  0.00    -0.003 A 
ATOM      4  C   UNL d   1      10.359   9.794 -13.814  0.00  0.00     0.058 A 
ATOM      5  C   UNL d   1       9.607  11.337 -13.582  0.00  0.00     0.009 A 
ATOM      6  C   UNL d   1      10.159  10.718 -14.141  0.00  0.00     0.038 A 
ATOM      7  C   UNL d   1      10.225   8.524 -12.603  0.00  0.00     0.012 A 
ATOM      8  C   UNL d   1       9.083   9.806 -11.446  0.00  0.00    -0.019 A 
ATOM      9  C   UNL d   1       9.862   8.200 -11.682  0.00  0.00     0.034 A 
ATOM     10  C   UNL d   1      10.793   8.903 -13.949  0.00  0.00     0.046 C 
ATOM     11  C   UNL d   1       9.287   8.845 -11.099  0.00  0.00    -0.087 A 
ATOM     12  C   UNL d   1       8.934   8.544 -10.214  0.00  0.00     0.043 C 
ENDROOT
BRANCH   3  13
ATOM     13  C   UNL d   1       8.704  11.651 -12.138  0.00  0.00    -0.018 C 
ATOM     14  C   UNL d   1       7.725  11.748 -12.316  0.00  0.00     0.010 C 
ATOM     15  C   UNL d   1       9.132  12.174 -11.400  0.00  0.00     0.010 C 
ENDBRANCH   3  13
BRANCH   4  16
ATOM     16  O   UNL d   1      10.880   9.612 -14.648  0.00  0.00    -0.390 OA
ATOM     17  H   UNL d   1      11.136  10.082 -14.962  0.00  0.00     0.210 HD
ENDBRANCH   4  16
TORSDOF 2
ENDMDL
MODEL 2
REMARK VINA RESULT:    -8.802      1.083      2.678
REMARK INTER + INTRA:          -6.054
REMARK INTER:                  -9.586
REMARK INTRA:                   3.532
REMARK UNBOUND:                 3.520
REMARK  2 active torsions:
REMARK  status: ('A' for Active; 'I' for Inactive)
REMARK    1  A    between atoms: C_5  and  O_1 
REMARK    2  A    between atoms: C_4  and  C_9 
ROOT
ATOM      1  C   UNL d   1       9.959   9.250 -12.597  0.00  0.00     0.028 A 
ATOM      2  C   UNL d   1       9.517  10.145 -12.533  0.00  0.00     0.019 A 
ATOM      3  C   UNL d   1       9.010  10.394 -11.708  0.00  0.00    -0.003 A 
ATOM      4  C   UNL d   1       9.895   8.605 -11.835  0.00  0.00     0.058 A 
ATOM      5  C   UNL d   1       8.945   9.749 -10.947  0.00  0.00     0.009 A 
ATOM      6  C   UNL d   1       9.388   8.855 -11.010  0.00  0.00     0.038 A 
ATOM      7  C   UNL d   1      10.491   8.976 -13.450  0.00  0.00     0.012 A 
ATOM      8  C   UNL d   1       9.575  10.827 -13.318  0.00  0.00    -0.019 A 
ATOM      9  C   UNL d   1      10.563   9.642 -14.247  0.00  0.00     0.034 A 
ATOM     10  C   UNL d   1      10.443   7.945 -12.348  0.00  0.00     0.046 C 
ATOM     11  C   UNL d   1      10.102  10.574 -14.181  0.00  0.00    -0.087 A 
ATOM     12  C   UNL d   1      10.164  11.221 -14.940  0.00  0.00     0.043 C 
ENDROOT
BRANCH   3  13
ATOM     13  C   UNL d   1       8.567  11.289 -11.645  0.00  0.00    -0.018 C 
ATOM     14  C   UNL d   1       9.076  12.074 -11.293  0.00  0.00     0.010 C 
ATOM     15  C   UNL d   1       7.616  11.398 -11.933  0.00  0.00     0.010 C 
ENDBRANCH   3  13
BRANCH   4  16
ATOM     16  O   UNL d   1      10.113   7.716 -11.432  0.00  0.00    -0.390 OA
ATOM     17  H   UNL d   1      10.509   7.680 -10.957  0.00  0.00     0.210 HD
ENDBRANCH   4  16
TORSDOF 2
ENDMDL
MODEL 3
REMARK VINA RESULT:    -8.781      1.536      3.421
REMARK INTER + INTRA:          -6.031
REMARK INTER:                  -9.547
REMARK INTRA:                   3.516
REMARK UNBOUND:                 3.520
REMARK  2 active torsions:
REMARK  status: ('A' for Active; 'I' for Inactive)
REMARK    1  A    between atoms: C_5  and  O_1 
REMARK    2  A    between atoms: C_4  and  C_9 
ROOT
ATOM      1  C   UNL d   1       8.638  11.187 -12.586  0.00  0.00     0.028 A 
ATOM      2  C   UNL d   1       8.920  10.281 -12.272  0.00  0.00     0.019 A 
ATOM      3  C   UNL d   1       8.509   9.886 -11.450  0.00  0.00    -0.003 A 
ATOM      4  C   UNL d   1       7.946  11.700 -12.079  0.00  0.00     0.058 A 
ATOM      5  C   UNL d   1       7.816  10.399 -10.943  0.00  0.00     0.009 A 
ATOM      6  C   UNL d   1       7.535  11.305 -11.257  0.00  0.00     0.038 A 
ATOM      7  C   UNL d   1       9.057  11.612 -13.441  0.00  0.00     0.012 A 
ATOM      8  C   UNL d   1       9.640   9.735 -12.791  0.00  0.00    -0.019 A 
ATOM      9  C   UNL d   1       9.779  11.084 -13.975  0.00  0.00     0.034 A 
ATOM     10  C   UNL d   1       8.020  12.451 -12.735  0.00  0.00     0.046 C 
ATOM     11  C   UNL d   1      10.073  10.139 -13.648  0.00  0.00    -0.087 A 
ATOM     12  C   UNL d   1      10.765   9.624 -14.153  0.00  0.00     0.043 C 
ENDROOT
BRANCH   3  13
ATOM     13  C   UNL d   1       8.790   8.980 -11.136  0.00  0.00    -0.018 C 
ATOM     14  C   UNL d   1       8.300   8.167 -11.451  0.00  0.00     0.010 C 
ATOM     15  C   UNL d   1       9.562   8.886 -10.508  0.00  0.00     0.010 C 
ENDBRANCH   3  13
BRANCH   4  16
ATOM     16  O   UNL d   1       7.383  12.519 -11.967  0.00  0.00    -0.390 OA
ATOM     17  H   UNL d   1       7.650  13.062 -11.833  0.00  0.00     0.210 HD
ENDBRANCH   4  16
TORSDOF 2
ENDMDL
MODEL 4
REMARK VINA RESULT:    -8.668      1.185      1.731
REMARK INTER + INTRA:          -5.908
REMARK INTER:                  -9.432
REMARK INTRA:                   3.524
REMARK UNBOUND:                 3.520
REMARK  2 active torsions:
REMARK  status: ('A' for Active; 'I' for Inactive)
REMARK    1  A    between atoms: C_5  and  O_1 
REMARK    2  A    between atoms: C_4  and  C_9 
ROOT
ATOM      1  C   UNL d   1       9.727  10.337 -13.984  0.00  0.00     0.028 A 
ATOM      2  C   UNL d   1       9.050  10.219 -13.257  0.00  0.00     0.019 A 
ATOM      3  C   UNL d   1       8.238  10.802 -13.231  0.00  0.00    -0.003 A 
ATOM      4  C   UNL d   1       9.591  11.038 -14.684  0.00  0.00     0.058 A 
ATOM      5  C   UNL d   1       8.103  11.502 -13.931  0.00  0.00     0.009 A 
ATOM      6  C   UNL d   1       8.779  11.621 -14.658  0.00  0.00     0.038 A 
ATOM      7  C   UNL d   1      10.578   9.738 -14.025  0.00  0.00     0.012 A 
ATOM      8  C   UNL d   1       9.178   9.493 -12.520  0.00  0.00    -0.019 A 
ATOM      9  C   UNL d   1      10.726   9.006 -13.299  0.00  0.00     0.034 A 
ATOM     10  C   UNL d   1      10.451  10.770 -15.119  0.00  0.00     0.046 C 
ATOM     11  C   UNL d   1      10.021   8.883 -12.541  0.00  0.00    -0.087 A 
ATOM     12  C   UNL d   1      10.154   8.183 -11.840  0.00  0.00     0.043 C 
ENDROOT
BRANCH   3  13
ATOM     13  C   UNL d   1       7.561  10.684 -12.504  0.00  0.00    -0.018 C 
ATOM     14  C   UNL d   1       6.775  10.082 -12.646  0.00  0.00     0.010 C 
ATOM     15  C   UNL d   1       7.671  11.167 -11.635  0.00  0.00     0.010 C 
ENDBRANCH   3  13
BRANCH   4  16
ATOM     16  O   UNL d   1       9.904  11.511 -15.508  0.00  0.00    -0.390 OA
ATOM     17  H   UNL d   1       9.864  12.128 -15.545  0.00  0.00     0.210 HD
ENDBRANCH   4  16
TORSDOF 2
ENDMDL
MODEL 5
REMARK VINA RESULT:    -8.560      1.709      2.914
REMARK INTER + INTRA:          -5.790
REMARK INTER:                  -9.382
REMARK INTRA:                   3.592
REMARK UNBOUND:                 3.520
REMARK  2 active torsions:
REMARK  status: ('A' for Active; 'I' for Inactive)
REMARK    1  A    between atoms: C_5  and  O_1 
REMARK    2  A    between atoms: C_4  and  C_9 
ROOT
ATOM      1  C   UNL d   1       8.493  10.051 -12.085  0.00  0.00     0.028 A 
ATOM      2  C   UNL d   1       8.993  10.087 -12.950  0.00  0.00     0.019 A 
ATOM      3  C   UNL d   1       9.357  10.958 -13.280  0.00  0.00    -0.003 A 
ATOM      4  C   UNL d   1       8.358  10.885 -11.550  0.00  0.00     0.058 A 
ATOM      5  C   UNL d   1       9.222  11.792 -12.745  0.00  0.00     0.009 A 
ATOM      6  C   UNL d   1       8.722  11.755 -11.880  0.00  0.00     0.038 A 
ATOM      7  C   UNL d   1       8.107   9.151 -11.727  0.00  0.00     0.012 A 
ATOM      8  C   UNL d   1       9.141   9.227 -13.519  0.00  0.00    -0.019 A 
ATOM      9  C   UNL d   1       8.244   8.279 -12.279  0.00  0.00     0.034 A 
ATOM     10  C   UNL d   1       7.859  10.361 -10.859  0.00  0.00     0.046 C 
ATOM     11  C   UNL d   1       8.764   8.317 -13.181  0.00  0.00    -0.087 A 
ATOM     12  C   UNL d   1       8.901   7.485 -13.719  0.00  0.00     0.043 C 
ENDROOT
BRANCH   3  13
ATOM     13  C   UNL d   1       9.857  10.995 -14.146  0.00  0.00    -0.018 C 
ATOM     14  C   UNL d   1      10.819  10.725 -14.179  0.00  0.00     0.010 C 
ATOM     15  C   UNL d   1       9.395  11.301 -14.978  0.00  0.00     0.010 C 
ENDBRANCH   3  13
BRANCH   4  16
ATOM     16  O   UNL d   1       7.991  11.345 -10.741  0.00  0.00    -0.390 OA
ATOM     17  H   UNL d   1       7.993  11.964 -10.709  0.00  0.00     0.210 HD
ENDBRANCH   4  16
TORSDOF 2
ENDMDL
