MODEL 1
REMARK VINA RESULT:     0.000      0.000      0.000
REMARK INTER + INTRA:           2.987
REMARK INTER:                   0.000
REMARK INTRA:                   2.987
REMARK UNBOUND:                 2.987
REMARK  2 active torsions:
REMARK  status: ('A' for Active; 'I' for Inactive)
REMARK    1  A    between atoms: O_1  and  C_6 
REMARK    2  A    between atoms: C_2  and  C_3 
ROOT
ATOM      1  C   UNL d   1      21.064   8.340  -8.503  0.00  0.00    -0.022 A 
ATOM      2  C   UNL d   1      21.433   9.183  -8.111  0.00  0.00     0.072 A 
ATOM      3  C   UNL d   1      20.545   7.707  -7.929  0.00  0.00     0.011 A 
ATOM      4  C   UNL d   1      20.764   8.759  -6.571  0.00  0.00    -0.059 A 
ATOM      5  C   UNL d   1      21.282   9.392  -7.145  0.00  0.00     0.043 A 
ATOM      6  C   UNL d   1      20.395   7.916  -6.963  0.00  0.00     0.007 A 
ATOM      7  C   UNL d   1      20.613   8.968  -5.604  0.00  0.00     0.048 C 
ENDROOT
BRANCH   1   8
ATOM      8  C   UNL d   1      21.214   8.131  -9.469  0.00  0.00     0.013 C 
ATOM      9  C   UNL d   1      20.557   8.442 -10.156  0.00  0.00     0.015 C 
ATOM     10  C   UNL d   1      22.022   7.612  -9.749  0.00  0.00     0.015 C 
ENDBRANCH   1   8
BRANCH   2  11
ATOM     11  O   UNL d   1      21.951   9.817  -8.685  0.00  0.00    -0.360 OA
ATOM     12  H   UNL d   1      22.383  10.182  -8.431  0.00  0.00     0.217 HD
ENDBRANCH   2  11
TORSDOF 2
ENDMDL
MODEL 2
REMARK VINA RESULT:     0.000     22.023     22.634
REMARK INTER + INTRA:           2.987
REMARK INTER:                   0.000
REMARK INTRA:                   2.987
REMARK UNBOUND:                 2.987
REMARK  2 active torsions:
REMARK  status: ('A' for Active; 'I' for Inactive)
REMARK    1  A    between atoms: O_1  and  C_6 
REMARK    2  A    between atoms: C_2  and  C_3 
ROOT
ATOM      1  C   UNL d   1      28.899 -12.484 -11.333  0.00  0.00    -0.022 A 
ATOM      2  C   UNL d   1      29.289 -11.829 -10.685  0.00  0.00     0.072 A 
ATOM      3  C   UNL d   1      28.538 -13.357 -11.005  0.00  0.00     0.011 A 
ATOM      4  C   UNL d   1      28.957 -12.921  -9.382  0.00  0.00    -0.059 A 
ATOM      5  C   UNL d   1      29.318 -12.048  -9.710  0.00  0.00     0.043 A 
ATOM      6  C   UNL d   1      28.567 -13.575 -10.030  0.00  0.00     0.007 A 
ATOM      7  C   UNL d   1      28.986 -13.139  -8.407  0.00  0.00     0.048 C 
ENDROOT
BRANCH   1   8
ATOM      8  C   UNL d   1      28.870 -12.266 -12.308  0.00  0.00     0.013 C 
ATOM      9  C   UNL d   1      28.076 -11.795 -12.692  0.00  0.00     0.015 C 
ATOM     10  C   UNL d   1      29.636 -12.518 -12.900  0.00  0.00     0.015 C 
ENDBRANCH   1   8
BRANCH   2  11
ATOM     11  O   UNL d   1      29.650 -10.957 -11.013  0.00  0.00    -0.360 OA
ATOM     12  H   UNL d   1      29.294 -10.583 -11.357  0.00  0.00     0.217 HD
ENDBRANCH   2  11
TORSDOF 2
ENDMDL
MODEL 3
REMARK VINA RESULT:     0.000     22.710     23.501
REMARK INTER + INTRA:           2.987
REMARK INTER:                   0.000
REMARK INTRA:                   2.987
REMARK UNBOUND:                 2.987
REMARK  2 active torsions:
REMARK  status: ('A' for Active; 'I' for Inactive)
REMARK    1  A    between atoms: O_1  and  C_6 
REMARK    2  A    between atoms: C_2  and  C_3 
ROOT
ATOM      1  C   UNL d   1       5.992  -8.887 -13.127  0.00  0.00    -0.022 A 
ATOM      2  C   UNL d   1       6.505  -8.042 -13.273  0.00  0.00     0.072 A 
ATOM      3  C   UNL d   1       5.069  -8.983 -13.500  0.00  0.00     0.011 A 
ATOM      4  C   UNL d   1       5.174  -7.388 -14.167  0.00  0.00    -0.059 A 
ATOM      5  C   UNL d   1       6.096  -7.292 -13.793  0.00  0.00     0.043 A 
ATOM      6  C   UNL d   1       4.660  -8.234 -14.021  0.00  0.00     0.007 A 
ATOM      7  C   UNL d   1       4.765  -6.638 -14.687  0.00  0.00     0.048 C 
ENDROOT
BRANCH   1   8
ATOM      8  C   UNL d   1       6.401  -9.637 -12.606  0.00  0.00     0.013 C 
ATOM      9  C   UNL d   1       6.275  -9.685 -11.615  0.00  0.00     0.015 C 
ATOM     10  C   UNL d   1       6.936 -10.339 -13.077  0.00  0.00     0.015 C 
ENDBRANCH   1   8
BRANCH   2  11
ATOM     11  O   UNL d   1       7.428  -7.946 -12.899  0.00  0.00    -0.360 OA
ATOM     12  H   UNL d   1       7.537  -7.540 -12.443  0.00  0.00     0.217 HD
ENDBRANCH   2  11
TORSDOF 2
ENDMDL
MODEL 4
REMARK VINA RESULT:     0.000     26.233     27.097
REMARK INTER + INTRA:           2.987
REMARK INTER:                   0.000
REMARK INTRA:                   2.987
REMARK UNBOUND:                 2.987
REMARK  2 active torsions:
REMARK  status: ('A' for Active; 'I' for Inactive)
REMARK    1  A    between atoms: O_1  and  C_6 
REMARK    2  A    between atoms: C_2  and  C_3 
ROOT
ATOM      1  C   UNL d   1      -3.910   3.055  -0.261  0.00  0.00    -0.022 A 
ATOM      2  C   UNL d   1      -4.080   4.039  -0.316  0.00  0.00     0.072 A 
ATOM      3  C   UNL d   1      -4.636   2.439   0.047  0.00  0.00     0.011 A 
ATOM      4  C   UNL d   1      -5.700   3.791   0.244  0.00  0.00    -0.059 A 
ATOM      5  C   UNL d   1      -4.975   4.407  -0.063  0.00  0.00     0.043 A 
ATOM      6  C   UNL d   1      -5.530   2.807   0.300  0.00  0.00     0.007 A 
ATOM      7  C   UNL d   1      -6.595   4.159   0.497  0.00  0.00     0.048 C 
ENDROOT
BRANCH   1   8
ATOM      8  C   UNL d   1      -3.016   2.688  -0.514  0.00  0.00     0.013 C 
ATOM      9  C   UNL d   1      -2.299   2.596   0.178  0.00  0.00     0.015 C 
ATOM     10  C   UNL d   1      -2.837   2.412  -1.458  0.00  0.00     0.015 C 
ENDBRANCH   1   8
BRANCH   2  11
ATOM     11  O   UNL d   1      -3.355   4.655  -0.624  0.00  0.00    -0.360 OA
ATOM     12  H   UNL d   1      -3.154   5.108  -0.251  0.00  0.00     0.217 HD
ENDBRANCH   2  11
TORSDOF 2
ENDMDL
MODEL 5
REMARK VINA RESULT:     0.000     10.076     11.181
REMARK INTER + INTRA:           2.987
REMARK INTER:                   0.000
REMARK INTRA:                   2.987
REMARK UNBOUND:                 2.987
REMARK  2 active torsions:
REMARK  status: ('A' for Active; 'I' for Inactive)
REMARK    1  A    between atoms: O_1  and  C_6 
REMARK    2  A    between atoms: C_2  and  C_3 
ROOT
ATOM      1  C   UNL d   1      13.184   1.603  -3.935  0.00  0.00    -0.022 A 
ATOM      2  C   UNL d   1      13.785   2.367  -3.699  0.00  0.00     0.072 A 
ATOM      3  C   UNL d   1      12.569   1.675  -4.720  0.00  0.00     0.011 A 
ATOM      4  C   UNL d   1      13.157   3.274  -5.033  0.00  0.00    -0.059 A 
ATOM      5  C   UNL d   1      13.771   3.202  -4.248  0.00  0.00     0.043 A 
ATOM      6  C   UNL d   1      12.556   2.511  -5.269  0.00  0.00     0.007 A 
ATOM      7  C   UNL d   1      13.143   4.110  -5.583  0.00  0.00     0.048 C 
ENDROOT
BRANCH   1   8
ATOM      8  C   UNL d   1      13.198   0.768  -3.385  0.00  0.00     0.013 C 
ATOM      9  C   UNL d   1      12.588   0.677  -2.598  0.00  0.00     0.015 C 
ATOM     10  C   UNL d   1      13.821   0.023  -3.624  0.00  0.00     0.015 C 
ENDBRANCH   1   8
BRANCH   2  11
ATOM     11  O   UNL d   1      14.400   2.295  -2.913  0.00  0.00    -0.360 OA
ATOM     12  H   UNL d   1      14.408   2.742  -2.484  0.00  0.00     0.217 HD
ENDBRANCH   2  11
TORSDOF 2
ENDMDL
