MODEL 1
REMARK VINA RESULT:    -5.873      0.000      0.000
REMARK INTER + INTRA:          -6.375
REMARK INTER:                  -7.717
REMARK INTRA:                   1.341
REMARK UNBOUND:                 1.386
REMARK  6 active torsions:
REMARK  status: ('A' for Active; 'I' for Inactive)
REMARK    1  A    between atoms: O_2  and  C_19 
REMARK       I    between atoms: N_3  and  C_9 
REMARK    2  A    between atoms: C_9  and  C_10 
REMARK    3  A    between atoms: C_10  and  C_11 
REMARK    4  A    between atoms: C_11  and  C_12 
REMARK    5  A    between atoms: C_12  and  C_13 
REMARK    6  A    between atoms: C_13  and  C_14 
ROOT
ATOM      1  C   UNL d   1       2.682   7.616  -2.791  0.00  0.00     0.005 C 
ENDROOT
BRANCH   1   2
ATOM      2  C   UNL d   1       2.663   6.957  -3.542  0.00  0.00     0.074 C 
BRANCH   2   3
ATOM      3  C   UNL d   1       3.171   6.099  -3.468  0.00  0.00     0.243 C 
ATOM      4  O   UNL d   1       3.866   5.989  -2.757  0.00  0.00    -0.268 OA
ATOM      5  N   UNL d   1       2.984   5.350  -4.104  0.00  0.00    -0.349 N 
ATOM      6  C   UNL d   1       3.492   4.492  -4.030  0.00  0.00     0.126 A 
ATOM      7  C   UNL d   1       2.289   5.460  -4.815  0.00  0.00     0.126 A 
ATOM      8  C   UNL d   1       3.305   3.744  -4.666  0.00  0.00     0.020 A 
ATOM      9  C   UNL d   1       2.610   3.853  -5.377  0.00  0.00     0.003 A 
ATOM     10  C   UNL d   1       2.102   4.711  -5.451  0.00  0.00     0.020 A 
ENDBRANCH   2   3
ENDBRANCH   1   2
BRANCH   1  11
ATOM     11  C   UNL d   1       1.918   8.248  -2.660  0.00  0.00     0.001 C 
BRANCH  11  12
ATOM     12  C   UNL d   1       1.991   8.990  -1.994  0.00  0.00     0.011 C 
BRANCH  12  13
ATOM     13  C   UNL d   1       1.166   9.371  -1.578  0.00  0.00    -0.036 A 
ATOM     14  C   UNL d   1       0.423   9.708  -2.157  0.00  0.00     0.014 A 
ATOM     15  C   UNL d   1      -0.402  10.089  -1.740  0.00  0.00     0.037 A 
ATOM     16  C   UNL d   1      -0.485  10.134  -0.745  0.00  0.00     0.065 A 
ATOM     17  C   UNL d   1       0.258   9.798  -0.166  0.00  0.00     0.037 A 
ATOM     18  C   UNL d   1       1.083   9.416  -0.582  0.00  0.00     0.014 A 
BRANCH  16  19
ATOM     19  O   UNL d   1      -1.310  10.515  -0.328  0.00  0.00    -0.361 OA
ATOM     20  H   UNL d   1      -1.272  11.021   0.028  0.00  0.00     0.217 HD
ENDBRANCH  16  19
ENDBRANCH  12  13
ENDBRANCH  11  12
ENDBRANCH   1  11
TORSDOF 6
ENDMDL
MODEL 2
REMARK VINA RESULT:    -5.433      3.803      6.056
REMARK INTER + INTRA:          -5.794
REMARK INTER:                  -7.070
REMARK INTRA:                   1.276
REMARK UNBOUND:                 1.386
REMARK  6 active torsions:
REMARK  status: ('A' for Active; 'I' for Inactive)
REMARK    1  A    between atoms: O_2  and  C_19 
REMARK       I    between atoms: N_3  and  C_9 
REMARK    2  A    between atoms: C_9  and  C_10 
REMARK    3  A    between atoms: C_10  and  C_11 
REMARK    4  A    between atoms: C_11  and  C_12 
REMARK    5  A    between atoms: C_12  and  C_13 
REMARK    6  A    between atoms: C_13  and  C_14 
ROOT
ATOM      1  C   UNL d   1       0.070   4.064  -5.782  0.00  0.00     0.005 C 
ENDROOT
BRANCH   1   2
ATOM      2  C   UNL d   1      -0.254   3.138  -5.975  0.00  0.00     0.074 C 
BRANCH   2   3
ATOM      3  C   UNL d   1      -1.227   2.972  -6.138  0.00  0.00     0.243 C 
ATOM      4  O   UNL d   1      -1.849   3.743  -6.275  0.00  0.00    -0.268 OA
ATOM      5  N   UNL d   1      -1.577   2.036  -6.166  0.00  0.00    -0.349 N 
ATOM      6  C   UNL d   1      -2.550   1.871  -6.330  0.00  0.00     0.126 A 
ATOM      7  C   UNL d   1      -0.955   1.265  -6.029  0.00  0.00     0.126 A 
ATOM      8  C   UNL d   1      -2.900   0.935  -6.357  0.00  0.00     0.020 A 
ATOM      9  C   UNL d   1      -2.278   0.164  -6.220  0.00  0.00     0.003 A 
ATOM     10  C   UNL d   1      -1.305   0.329  -6.056  0.00  0.00     0.020 A 
ENDBRANCH   2   3
ENDBRANCH   1   2
BRANCH   1  11
ATOM     11  C   UNL d   1       0.899   4.201  -5.240  0.00  0.00     0.001 C 
BRANCH  11  12
ATOM     12  C   UNL d   1       1.460   5.017  -5.381  0.00  0.00     0.011 C 
BRANCH  12  13
ATOM     13  C   UNL d   1       2.172   5.254  -4.720  0.00  0.00    -0.036 A 
ATOM     14  C   UNL d   1       2.153   6.143  -4.262  0.00  0.00     0.014 A 
ATOM     15  C   UNL d   1       2.865   6.381  -3.602  0.00  0.00     0.037 A 
ATOM     16  C   UNL d   1       3.596   5.729  -3.399  0.00  0.00     0.065 A 
ATOM     17  C   UNL d   1       3.615   4.840  -3.856  0.00  0.00     0.037 A 
ATOM     18  C   UNL d   1       2.903   4.603  -4.517  0.00  0.00     0.014 A 
BRANCH  16  19
ATOM     19  O   UNL d   1       4.308   5.967  -2.738  0.00  0.00    -0.361 OA
ATOM     20  H   UNL d   1       4.186   5.950  -2.131  0.00  0.00     0.217 HD
ENDBRANCH  16  19
ENDBRANCH  12  13
ENDBRANCH  11  12
ENDBRANCH   1  11
TORSDOF 6
ENDMDL
MODEL 3
REMARK VINA RESULT:    -5.386      1.880      6.333
REMARK INTER + INTRA:          -5.732
REMARK INTER:                  -7.073
REMARK INTRA:                   1.341
REMARK UNBOUND:                 1.386
REMARK  6 active torsions:
REMARK  status: ('A' for Active; 'I' for Inactive)
REMARK    1  A    between atoms: O_2  and  C_19 
REMARK       I    between atoms: N_3  and  C_9 
REMARK    2  A    between atoms: C_9  and  C_10 
REMARK    3  A    between atoms: C_10  and  C_11 
REMARK    4  A    between atoms: C_11  and  C_12 
REMARK    5  A    between atoms: C_12  and  C_13 
REMARK    6  A    between atoms: C_13  and  C_14 
ROOT
ATOM      1  C   UNL d   1       1.372   8.956  -2.470  0.00  0.00     0.005 C 
ENDROOT
BRANCH   1   2
ATOM      2  C   UNL d   1       1.101   9.225  -1.546  0.00  0.00     0.074 C 
BRANCH   2   3
ATOM      3  C   UNL d   1       0.224   9.679  -1.394  0.00  0.00     0.243 C 
ATOM      4  O   UNL d   1      -0.378   9.877  -2.168  0.00  0.00    -0.268 OA
ATOM      5  N   UNL d   1      -0.053   9.936  -0.468  0.00  0.00    -0.349 N 
ATOM      6  C   UNL d   1      -0.931  10.391  -0.316  0.00  0.00     0.126 A 
ATOM      7  C   UNL d   1       0.548   9.738   0.306  0.00  0.00     0.126 A 
ATOM      8  C   UNL d   1      -1.207  10.647   0.610  0.00  0.00     0.020 A 
ATOM      9  C   UNL d   1      -0.606  10.449   1.384  0.00  0.00     0.003 A 
ATOM     10  C   UNL d   1       0.272   9.995   1.232  0.00  0.00     0.020 A 
ENDBRANCH   2   3
ENDBRANCH   1   2
BRANCH   1  11
ATOM     11  C   UNL d   1       2.090   8.273  -2.602  0.00  0.00     0.001 C 
BRANCH  11  12
ATOM     12  C   UNL d   1       2.355   7.999  -3.527  0.00  0.00     0.011 C 
BRANCH  12  13
ATOM     13  C   UNL d   1       2.664   7.064  -3.702  0.00  0.00    -0.036 A 
ATOM     14  C   UNL d   1       2.247   6.529  -4.437  0.00  0.00     0.014 A 
ATOM     15  C   UNL d   1       2.556   5.594  -4.612  0.00  0.00     0.037 A 
ATOM     16  C   UNL d   1       3.280   5.194  -4.051  0.00  0.00     0.065 A 
ATOM     17  C   UNL d   1       3.697   5.728  -3.316  0.00  0.00     0.037 A 
ATOM     18  C   UNL d   1       3.388   6.663  -3.141  0.00  0.00     0.014 A 
BRANCH  16  19
ATOM     19  O   UNL d   1       3.589   4.259  -4.226  0.00  0.00    -0.361 OA
ATOM     20  H   UNL d   1       3.742   4.085  -4.802  0.00  0.00     0.217 HD
ENDBRANCH  16  19
ENDBRANCH  12  13
ENDBRANCH  11  12
ENDBRANCH   1  11
TORSDOF 6
ENDMDL
MODEL 4
REMARK VINA RESULT:    -5.321      1.904      6.166
REMARK INTER + INTRA:          -5.645
REMARK INTER:                  -6.856
REMARK INTRA:                   1.210
REMARK UNBOUND:                 1.386
REMARK  6 active torsions:
REMARK  status: ('A' for Active; 'I' for Inactive)
REMARK    1  A    between atoms: O_2  and  C_19 
REMARK       I    between atoms: N_3  and  C_9 
REMARK    2  A    between atoms: C_9  and  C_10 
REMARK    3  A    between atoms: C_10  and  C_11 
REMARK    4  A    between atoms: C_11  and  C_12 
REMARK    5  A    between atoms: C_12  and  C_13 
REMARK    6  A    between atoms: C_13  and  C_14 
ROOT
ATOM      1  C   UNL d   1       2.143   8.390  -2.302  0.00  0.00     0.005 C 
ENDROOT
BRANCH   1   2
ATOM      2  C   UNL d   1       1.352   8.991  -2.417  0.00  0.00     0.074 C 
BRANCH   2   3
ATOM      3  C   UNL d   1       0.866   9.337  -1.615  0.00  0.00     0.243 C 
ATOM      4  O   UNL d   1       1.238   9.183  -0.699  0.00  0.00    -0.268 OA
ATOM      5  N   UNL d   1       0.007   9.838  -1.728  0.00  0.00    -0.349 N 
ATOM      6  C   UNL d   1      -0.479  10.184  -0.925  0.00  0.00     0.126 A 
ATOM      7  C   UNL d   1      -0.365   9.992  -2.643  0.00  0.00     0.126 A 
ATOM      8  C   UNL d   1      -1.337  10.684  -1.038  0.00  0.00     0.020 A 
ATOM      9  C   UNL d   1      -1.709  10.839  -1.953  0.00  0.00     0.003 A 
ATOM     10  C   UNL d   1      -1.223  10.493  -2.756  0.00  0.00     0.020 A 
ENDBRANCH   2   3
ENDBRANCH   1   2
BRANCH   1  11
ATOM     11  C   UNL d   1       2.429   7.792  -3.050  0.00  0.00     0.001 C 
BRANCH  11  12
ATOM     12  C   UNL d   1       3.206   7.174  -2.926  0.00  0.00     0.011 C 
BRANCH  12  13
ATOM     13  C   UNL d   1       3.381   6.451  -3.595  0.00  0.00    -0.036 A 
ATOM     14  C   UNL d   1       2.910   5.572  -3.516  0.00  0.00     0.014 A 
ATOM     15  C   UNL d   1       3.085   4.849  -4.184  0.00  0.00     0.037 A 
ATOM     16  C   UNL d   1       3.730   5.006  -4.932  0.00  0.00     0.065 A 
ATOM     17  C   UNL d   1       4.201   5.885  -5.011  0.00  0.00     0.037 A 
ATOM     18  C   UNL d   1       4.026   6.607  -4.343  0.00  0.00     0.014 A 
BRANCH  16  19
ATOM     19  O   UNL d   1       3.905   4.283  -5.601  0.00  0.00    -0.361 OA
ATOM     20  H   UNL d   1       3.510   4.192  -6.069  0.00  0.00     0.217 HD
ENDBRANCH  16  19
ENDBRANCH  12  13
ENDBRANCH  11  12
ENDBRANCH   1  11
TORSDOF 6
ENDMDL
MODEL 5
REMARK VINA RESULT:    -5.298      9.402     10.130
REMARK INTER + INTRA:          -5.615
REMARK INTER:                  -6.929
REMARK INTRA:                   1.314
REMARK UNBOUND:                 1.386
REMARK  6 active torsions:
REMARK  status: ('A' for Active; 'I' for Inactive)
REMARK    1  A    between atoms: O_2  and  C_19 
REMARK       I    between atoms: N_3  and  C_9 
REMARK    2  A    between atoms: C_9  and  C_10 
REMARK    3  A    between atoms: C_10  and  C_11 
REMARK    4  A    between atoms: C_11  and  C_12 
REMARK    5  A    between atoms: C_12  and  C_13 
REMARK    6  A    between atoms: C_13  and  C_14 
ROOT
ATOM      1  C   UNL d   1       1.650  -2.777  -0.896  0.00  0.00     0.005 C 
ENDROOT
BRANCH   1   2
ATOM      2  C   UNL d   1       1.416  -2.489  -1.825  0.00  0.00     0.074 C 
BRANCH   2   3
ATOM      3  C   UNL d   1       0.515  -2.703  -2.203  0.00  0.00     0.243 C 
ATOM      4  O   UNL d   1      -0.110  -3.298  -1.698  0.00  0.00    -0.268 OA
ATOM      5  N   UNL d   1       0.240  -2.323  -3.086  0.00  0.00    -0.349 N 
ATOM      6  C   UNL d   1      -0.661  -2.537  -3.463  0.00  0.00     0.126 A 
ATOM      7  C   UNL d   1       0.866  -1.728  -3.591  0.00  0.00     0.126 A 
ATOM      8  C   UNL d   1      -0.936  -2.156  -4.346  0.00  0.00     0.020 A 
ATOM      9  C   UNL d   1      -0.311  -1.562  -4.851  0.00  0.00     0.003 A 
ATOM     10  C   UNL d   1       0.590  -1.348  -4.474  0.00  0.00     0.020 A 
ENDBRANCH   2   3
ENDBRANCH   1   2
BRANCH   1  11
ATOM     11  C   UNL d   1       2.312  -2.251  -0.362  0.00  0.00     0.001 C 
BRANCH  11  12
ATOM     12  C   UNL d   1       2.532  -2.528   0.573  0.00  0.00     0.011 C 
BRANCH  12  13
ATOM     13  C   UNL d   1       2.863  -1.850   1.230  0.00  0.00    -0.036 A 
ATOM     14  C   UNL d   1       2.299  -1.600   2.017  0.00  0.00     0.014 A 
ATOM     15  C   UNL d   1       2.630  -0.922   2.674  0.00  0.00     0.037 A 
ATOM     16  C   UNL d   1       3.525  -0.496   2.544  0.00  0.00     0.065 A 
ATOM     17  C   UNL d   1       4.089  -0.746   1.758  0.00  0.00     0.037 A 
ATOM     18  C   UNL d   1       3.758  -1.423   1.101  0.00  0.00     0.014 A 
BRANCH  16  19
ATOM     19  O   UNL d   1       3.856   0.182   3.201  0.00  0.00    -0.361 OA
ATOM     20  H   UNL d   1       3.518   0.688   3.321  0.00  0.00     0.217 HD
ENDBRANCH  16  19
ENDBRANCH  12  13
ENDBRANCH  11  12
ENDBRANCH   1  11
TORSDOF 6
ENDMDL
