MODEL 1
REMARK VINA RESULT:     0.000      0.000      0.000
REMARK INTER + INTRA:           3.661
REMARK INTER:                   0.000
REMARK INTRA:                   3.661
REMARK UNBOUND:                 3.661
REMARK  2 active torsions:
REMARK  status: ('A' for Active; 'I' for Inactive)
REMARK    1  A    between atoms: O_1  and  C_2 
REMARK    2  A    between atoms: C_4  and  C_9 
ROOT
ATOM      1  C   UNL d   1      -4.239  16.278 -10.138  0.00  0.00     0.069 A 
ATOM      2  C   UNL d   1      -5.153  16.641 -10.318  0.00  0.00     0.047 A 
ATOM      3  C   UNL d   1      -5.950  16.039 -10.262  0.00  0.00    -0.001 A 
ATOM      4  C   UNL d   1      -4.121  15.314  -9.901  0.00  0.00     0.017 A 
ATOM      5  C   UNL d   1      -5.832  15.075 -10.025  0.00  0.00     0.006 A 
ATOM      6  C   UNL d   1      -4.918  14.712  -9.844  0.00  0.00     0.007 A 
ATOM      7  C   UNL d   1      -3.399  16.892 -10.193  0.00  0.00     0.043 A 
ATOM      8  C   UNL d   1      -5.292  17.643 -10.567  0.00  0.00    -0.016 A 
ATOM      9  C   UNL d   1      -3.514  17.898 -10.440  0.00  0.00     0.036 A 
ATOM     10  C   UNL d   1      -3.207  14.951  -9.721  0.00  0.00     0.013 C 
ATOM     11  C   UNL d   1      -4.467  18.276 -10.628  0.00  0.00    -0.087 A 
ATOM     12  C   UNL d   1      -4.588  19.239 -10.865  0.00  0.00     0.043 C 
ENDROOT
BRANCH   3  13
ATOM     13  C   UNL d   1      -6.864  16.402 -10.442  0.00  0.00    -0.018 C 
ATOM     14  C   UNL d   1      -7.409  16.778  -9.693  0.00  0.00     0.010 C 
ATOM     15  C   UNL d   1      -7.233  16.387 -11.371  0.00  0.00     0.010 C 
ENDBRANCH   3  13
BRANCH   1  16
ATOM     16  O   UNL d   1      -3.324  15.916  -9.958  0.00  0.00    -0.389 OA
ATOM     17  H   UNL d   1      -2.839  16.300  -9.924  0.00  0.00     0.210 HD
ENDBRANCH   1  16
TORSDOF 2
ENDMDL
MODEL 2
REMARK VINA RESULT:     0.000     26.506     27.340
REMARK INTER + INTRA:           3.661
REMARK INTER:                   0.000
REMARK INTRA:                   3.661
REMARK UNBOUND:                 3.661
REMARK  2 active torsions:
REMARK  status: ('A' for Active; 'I' for Inactive)
REMARK    1  A    between atoms: O_1  and  C_2 
REMARK    2  A    between atoms: C_4  and  C_9 
ROOT
ATOM      1  C   UNL d   1      -9.296  17.667  16.423  0.00  0.00     0.069 A 
ATOM      2  C   UNL d   1      -8.628  18.387  16.615  0.00  0.00     0.047 A 
ATOM      3  C   UNL d   1      -8.405  18.622  17.561  0.00  0.00    -0.001 A 
ATOM      4  C   UNL d   1      -9.740  17.183  17.177  0.00  0.00     0.017 A 
ATOM      5  C   UNL d   1      -8.849  18.138  18.314  0.00  0.00     0.006 A 
ATOM      6  C   UNL d   1      -9.516  17.419  18.123  0.00  0.00     0.007 A 
ATOM      7  C   UNL d   1      -9.539  17.411  15.443  0.00  0.00     0.043 A 
ATOM      8  C   UNL d   1      -8.157  18.900  15.840  0.00  0.00    -0.016 A 
ATOM      9  C   UNL d   1      -9.080  17.911  14.652  0.00  0.00     0.036 A 
ATOM     10  C   UNL d   1     -10.407  16.464  16.985  0.00  0.00     0.013 C 
ATOM     11  C   UNL d   1      -8.385  18.660  14.852  0.00  0.00    -0.087 A 
ATOM     12  C   UNL d   1      -7.939  19.146  14.101  0.00  0.00     0.043 C 
ENDROOT
BRANCH   3  13
ATOM     13  C   UNL d   1      -7.737  19.341  17.752  0.00  0.00    -0.018 C 
ATOM     14  C   UNL d   1      -6.768  19.113  17.845  0.00  0.00     0.010 C 
ATOM     15  C   UNL d   1      -8.038  20.290  17.852  0.00  0.00     0.010 C 
ENDBRANCH   3  13
BRANCH   1  16
ATOM     16  O   UNL d   1      -9.963  16.948  16.231  0.00  0.00    -0.389 OA
ATOM     17  H   UNL d   1     -10.471  16.894  16.583  0.00  0.00     0.210 HD
ENDBRANCH   1  16
TORSDOF 2
ENDMDL
MODEL 3
REMARK VINA RESULT:     0.000     28.749     29.381
REMARK INTER + INTRA:           3.661
REMARK INTER:                   0.000
REMARK INTRA:                   3.661
REMARK UNBOUND:                 3.661
REMARK  2 active torsions:
REMARK  status: ('A' for Active; 'I' for Inactive)
REMARK    1  A    between atoms: O_1  and  C_2 
REMARK    2  A    between atoms: C_4  and  C_9 
ROOT
ATOM      1  C   UNL d   1     -10.178  18.326  18.240  0.00  0.00     0.069 A 
ATOM      2  C   UNL d   1     -10.185  17.384  18.576  0.00  0.00     0.047 A 
ATOM      3  C   UNL d   1     -11.041  16.868  18.598  0.00  0.00    -0.001 A 
ATOM      4  C   UNL d   1     -11.026  18.751  17.925  0.00  0.00     0.017 A 
ATOM      5  C   UNL d   1     -11.889  17.293  18.283  0.00  0.00     0.006 A 
ATOM      6  C   UNL d   1     -11.882  18.234  17.947  0.00  0.00     0.007 A 
ATOM      7  C   UNL d   1      -9.294  18.877  18.212  0.00  0.00     0.043 A 
ATOM      8  C   UNL d   1      -9.309  16.928  18.908  0.00  0.00    -0.016 A 
ATOM      9  C   UNL d   1      -8.406  18.441  18.538  0.00  0.00     0.036 A 
ATOM     10  C   UNL d   1     -11.019  19.693  17.589  0.00  0.00     0.013 C 
ATOM     11  C   UNL d   1      -8.413  17.460  18.888  0.00  0.00    -0.087 A 
ATOM     12  C   UNL d   1      -7.567  17.032  19.204  0.00  0.00     0.043 C 
ENDROOT
BRANCH   3  13
ATOM     13  C   UNL d   1     -11.048  15.926  18.934  0.00  0.00    -0.018 C 
ATOM     14  C   UNL d   1     -10.898  15.167  18.300  0.00  0.00     0.010 C 
ATOM     15  C   UNL d   1     -11.205  15.743  19.905  0.00  0.00     0.010 C 
ENDBRANCH   3  13
BRANCH   1  16
ATOM     16  O   UNL d   1     -10.170  19.268  17.904  0.00  0.00    -0.389 OA
ATOM     17  H   UNL d   1      -9.897  19.402  17.364  0.00  0.00     0.210 HD
ENDBRANCH   1  16
TORSDOF 2
ENDMDL
MODEL 4
REMARK VINA RESULT:     0.000      7.325      8.736
REMARK INTER + INTRA:           3.661
REMARK INTER:                   0.000
REMARK INTRA:                   3.661
REMARK UNBOUND:                 3.661
REMARK  2 active torsions:
REMARK  status: ('A' for Active; 'I' for Inactive)
REMARK    1  A    between atoms: O_1  and  C_2 
REMARK    2  A    between atoms: C_4  and  C_9 
ROOT
ATOM      1  C   UNL d   1       3.745  17.728  -8.263  0.00  0.00     0.069 A 
ATOM      2  C   UNL d   1       3.008  17.152  -7.912  0.00  0.00     0.047 A 
ATOM      3  C   UNL d   1       3.110  16.157  -7.905  0.00  0.00    -0.001 A 
ATOM      4  C   UNL d   1       4.585  17.310  -8.609  0.00  0.00     0.017 A 
ATOM      5  C   UNL d   1       3.950  15.739  -8.251  0.00  0.00     0.006 A 
ATOM      6  C   UNL d   1       4.688  16.315  -8.602  0.00  0.00     0.007 A 
ATOM      7  C   UNL d   1       3.653  18.766  -8.277  0.00  0.00     0.043 A 
ATOM      8  C   UNL d   1       2.126  17.573  -7.548  0.00  0.00    -0.016 A 
ATOM      9  C   UNL d   1       2.781  19.209  -7.919  0.00  0.00     0.036 A 
ATOM     10  C   UNL d   1       5.323  17.886  -8.961  0.00  0.00     0.013 C 
ATOM     11  C   UNL d   1       2.013  18.608  -7.552  0.00  0.00    -0.087 A 
ATOM     12  C   UNL d   1       1.171  19.023  -7.206  0.00  0.00     0.043 C 
ENDROOT
BRANCH   3  13
ATOM     13  C   UNL d   1       2.372  15.581  -7.553  0.00  0.00    -0.018 C 
ATOM     14  C   UNL d   1       1.657  15.252  -8.170  0.00  0.00     0.010 C 
ATOM     15  C   UNL d   1       2.350  15.333  -6.585  0.00  0.00     0.010 C 
ENDBRANCH   3  13
BRANCH   1  16
ATOM     16  O   UNL d   1       4.483  18.304  -8.615  0.00  0.00    -0.389 OA
ATOM     17  H   UNL d   1       4.874  18.081  -9.041  0.00  0.00     0.210 HD
ENDBRANCH   1  16
TORSDOF 2
ENDMDL
MODEL 5
REMARK VINA RESULT:     0.000      8.440      9.822
REMARK INTER + INTRA:           3.661
REMARK INTER:                   0.000
REMARK INTRA:                   3.661
REMARK UNBOUND:                 3.661
REMARK  2 active torsions:
REMARK  status: ('A' for Active; 'I' for Inactive)
REMARK    1  A    between atoms: O_1  and  C_2 
REMARK    2  A    between atoms: C_4  and  C_9 
ROOT
ATOM      1  C   UNL d   1       3.745  17.728  -8.263  0.00  0.00     0.069 A 
ATOM      2  C   UNL d   1       4.152  17.647  -7.354  0.00  0.00     0.047 A 
ATOM      3  C   UNL d   1       4.437  16.752  -7.011  0.00  0.00    -0.001 A 
ATOM      4  C   UNL d   1       3.622  16.914  -8.831  0.00  0.00     0.017 A 
ATOM      5  C   UNL d   1       4.314  15.937  -7.578  0.00  0.00     0.006 A 
ATOM      6  C   UNL d   1       3.906  16.018  -8.488  0.00  0.00     0.007 A 
ATOM      7  C   UNL d   1       3.444  18.654  -8.634  0.00  0.00     0.043 A 
ATOM      8  C   UNL d   1       4.287  18.486  -6.751  0.00  0.00    -0.016 A 
ATOM      9  C   UNL d   1       3.569  19.507  -8.049  0.00  0.00     0.036 A 
ATOM     10  C   UNL d   1       3.215  16.995  -9.740  0.00  0.00     0.013 C 
ATOM     11  C   UNL d   1       3.993  19.422  -7.101  0.00  0.00    -0.087 A 
ATOM     12  C   UNL d   1       4.117  20.234  -6.532  0.00  0.00     0.043 C 
ENDROOT
BRANCH   3  13
ATOM     13  C   UNL d   1       4.844  16.671  -6.101  0.00  0.00    -0.018 C 
ATOM     14  C   UNL d   1       4.261  16.511  -5.305  0.00  0.00     0.010 C 
ATOM     15  C   UNL d   1       5.834  16.749  -5.988  0.00  0.00     0.010 C 
ENDBRANCH   3  13
BRANCH   1  16
ATOM     16  O   UNL d   1       3.338  17.809  -9.173  0.00  0.00    -0.389 OA
ATOM     17  H   UNL d   1       3.035  17.328  -9.421  0.00  0.00     0.210 HD
ENDBRANCH   1  16
TORSDOF 2
ENDMDL
