MODEL 1
REMARK VINA RESULT:   -11.011      0.000      0.000
REMARK INTER + INTRA:          -2.740
REMARK INTER:                 -15.629
REMARK INTRA:                  12.889
REMARK UNBOUND:                12.455
REMARK  7 active torsions:
REMARK  status: ('A' for Active; 'I' for Inactive)
REMARK    1  A    between atoms: C_22  and  O_1 
REMARK    2  A    between atoms: C_6  and  C_13 
REMARK    3  A    between atoms: C_13  and  C_20 
REMARK    4  A    between atoms: C_20  and  C_24 
REMARK    5  A    between atoms: C_25  and  C_24 
REMARK    6  A    between atoms: C_25  and  C_26 
REMARK    7  A    between atoms: C_25  and  C_27 
ROOT
ATOM      1  C   UNL d   1       7.596  24.103 -17.192  0.00  0.00    -0.036 A 
ATOM      2  C   UNL d   1       6.855  23.506 -16.884  0.00  0.00    -0.001 A 
ATOM      3  C   UNL d   1       6.358  23.719 -16.043  0.00  0.00    -0.001 A 
ATOM      4  C   UNL d   1       6.601  24.530 -15.511  0.00  0.00     0.003 A 
ATOM      5  C   UNL d   1       7.960  23.726 -18.036  0.00  0.00    -0.002 A 
ATOM      6  C   UNL d   1       7.838  24.914 -16.660  0.00  0.00     0.010 A 
ATOM      7  C   UNL d   1       6.091  24.765 -14.633  0.00  0.00    -0.017 A 
ATOM      8  C   UNL d   1       6.769  22.764 -17.540  0.00  0.00     0.006 A 
ATOM      9  C   UNL d   1       7.341  25.127 -15.819  0.00  0.00     0.007 A 
ATOM     10  C   UNL d   1       7.450  22.900 -18.252  0.00  0.00     0.006 A 
ATOM     11  C   UNL d   1       5.589  23.087 -15.735  0.00  0.00     0.033 A 
ATOM     12  C   UNL d   1       8.336  24.701 -17.501  0.00  0.00     0.016 C 
ATOM     13  C   UNL d   1       5.319  24.147 -14.305  0.00  0.00    -0.072 A 
ATOM     14  C   UNL d   1       6.373  25.650 -14.072  0.00  0.00     0.016 A 
ATOM     15  C   UNL d   1       5.066  23.302 -14.860  0.00  0.00    -0.023 A 
ATOM     16  C   UNL d   1       6.833  25.358 -14.947  0.00  0.00     0.020 C 
ATOM     17  C   UNL d   1       4.774  24.372 -13.394  0.00  0.00     0.066 A 
ATOM     18  C   UNL d   1       5.842  25.895 -13.157  0.00  0.00     0.033 A 
ATOM     19  C   UNL d   1       5.038  25.251 -12.816  0.00  0.00     0.122 A 
ENDROOT
BRANCH   5  20
ATOM     20  C   UNL d   1       8.709  24.110 -18.576  0.00  0.00    -0.014 C 
ATOM     21  C   UNL d   1       9.599  24.272 -18.150  0.00  0.00     0.010 C 
BRANCH  20  22
ATOM     22  C   UNL d   1       8.569  24.332 -19.540  0.00  0.00     0.005 C 
BRANCH  22  23
ATOM     23  C   UNL d   1       9.207  23.989 -20.231  0.00  0.00     0.005 C 
BRANCH  23  24
ATOM     24  C   UNL d   1       9.041  24.172 -21.199  0.00  0.00    -0.012 C 
BRANCH  24  25
ATOM     25  C   UNL d   1       8.495  23.534 -21.742  0.00  0.00    -0.019 C 
ATOM     26  C   UNL d   1       7.598  23.809 -22.085  0.00  0.00     0.010 C 
ATOM     27  C   UNL d   1       8.847  22.618 -21.941  0.00  0.00     0.010 C 
ENDBRANCH  24  25
BRANCH  24  28
ATOM     28  C   UNL d   1       9.420  24.993 -21.626  0.00  0.00     0.000 C 
ATOM     29  C   UNL d   1      10.411  25.091 -21.726  0.00  0.00     0.005 C 
ENDBRANCH  24  28
ENDBRANCH  23  24
ENDBRANCH  22  23
ENDBRANCH  20  22
ENDBRANCH   5  20
BRANCH  19  30
ATOM     30  O   UNL d   1       4.542  25.468 -11.975  0.00  0.00    -0.395 OA
ATOM     31  H   UNL d   1       4.424  25.021 -11.561  0.00  0.00     0.210 HD
ENDBRANCH  19  30
TORSDOF 7
ENDMDL
MODEL 2
REMARK VINA RESULT:   -10.984      2.670      6.695
REMARK INTER + INTRA:          -2.703
REMARK INTER:                 -14.982
REMARK INTRA:                  12.279
REMARK UNBOUND:                12.455
REMARK  7 active torsions:
REMARK  status: ('A' for Active; 'I' for Inactive)
REMARK    1  A    between atoms: C_22  and  O_1 
REMARK    2  A    between atoms: C_6  and  C_13 
REMARK    3  A    between atoms: C_13  and  C_20 
REMARK    4  A    between atoms: C_20  and  C_24 
REMARK    5  A    between atoms: C_25  and  C_24 
REMARK    6  A    between atoms: C_25  and  C_26 
REMARK    7  A    between atoms: C_25  and  C_27 
ROOT
ATOM      1  C   UNL d   1       7.494  23.590 -17.690  0.00  0.00    -0.036 A 
ATOM      2  C   UNL d   1       8.027  24.399 -17.936  0.00  0.00    -0.001 A 
ATOM      3  C   UNL d   1       8.545  24.417 -18.791  0.00  0.00    -0.001 A 
ATOM      4  C   UNL d   1       8.529  23.625 -19.401  0.00  0.00     0.003 A 
ATOM      5  C   UNL d   1       7.058  23.767 -16.815  0.00  0.00    -0.002 A 
ATOM      6  C   UNL d   1       7.478  22.798 -18.300  0.00  0.00     0.010 A 
ATOM      7  C   UNL d   1       9.063  23.628 -20.296  0.00  0.00    -0.017 A 
ATOM      8  C   UNL d   1       7.916  25.070 -17.210  0.00  0.00     0.006 A 
ATOM      9  C   UNL d   1       7.996  22.815 -19.156  0.00  0.00     0.007 A 
ATOM     10  C   UNL d   1       7.317  24.679 -16.518  0.00  0.00     0.006 A 
ATOM     11  C   UNL d   1       9.096  25.268 -19.033  0.00  0.00     0.033 A 
ATOM     12  C   UNL d   1       6.961  22.780 -17.445  0.00  0.00     0.016 C 
ATOM     13  C   UNL d   1       9.621  24.468 -20.558  0.00  0.00    -0.072 A 
ATOM     14  C   UNL d   1       9.031  22.757 -20.942  0.00  0.00     0.016 A 
ATOM     15  C   UNL d   1       9.637  25.293 -19.923  0.00  0.00    -0.023 A 
ATOM     16  C   UNL d   1       8.527  22.822 -20.044  0.00  0.00     0.020 C 
ATOM     17  C   UNL d   1      10.185  24.495 -21.485  0.00  0.00     0.066 A 
ATOM     18  C   UNL d   1       9.587  22.760 -21.873  0.00  0.00     0.033 A 
ATOM     19  C   UNL d   1      10.168  23.635 -22.146  0.00  0.00     0.122 A 
ENDROOT
BRANCH   5  20
ATOM     20  C   UNL d   1       6.460  23.136 -16.319  0.00  0.00    -0.014 C 
ATOM     21  C   UNL d   1       6.856  22.389 -15.785  0.00  0.00     0.010 C 
BRANCH  20  22
ATOM     22  C   UNL d   1       5.468  23.253 -16.356  0.00  0.00     0.005 C 
BRANCH  22  23
ATOM     23  C   UNL d   1       4.892  22.865 -15.636  0.00  0.00     0.005 C 
BRANCH  23  24
ATOM     24  C   UNL d   1       3.909  23.049 -15.631  0.00  0.00    -0.012 C 
BRANCH  24  25
ATOM     25  C   UNL d   1       3.291  22.480 -16.173  0.00  0.00    -0.019 C 
ATOM     26  C   UNL d   1       3.200  21.506 -15.969  0.00  0.00     0.010 C 
ATOM     27  C   UNL d   1       2.763  22.886 -16.919  0.00  0.00     0.010 C 
ENDBRANCH  24  25
BRANCH  24  28
ATOM     28  C   UNL d   1       3.544  23.802 -15.082  0.00  0.00     0.000 C 
ATOM     29  C   UNL d   1       3.794  23.883 -14.117  0.00  0.00     0.005 C 
ENDBRANCH  24  28
ENDBRANCH  23  24
ENDBRANCH  22  23
ENDBRANCH  20  22
ENDBRANCH   5  20
BRANCH  19  30
ATOM     30  O   UNL d   1      10.684  23.649 -23.003  0.00  0.00    -0.395 OA
ATOM     31  H   UNL d   1      10.718  24.171 -23.336  0.00  0.00     0.210 HD
ENDBRANCH  19  30
TORSDOF 7
ENDMDL
MODEL 3
REMARK VINA RESULT:   -10.743     26.663     27.840
REMARK INTER + INTRA:          -2.371
REMARK INTER:                 -15.177
REMARK INTRA:                  12.806
REMARK UNBOUND:                12.455
REMARK  7 active torsions:
REMARK  status: ('A' for Active; 'I' for Inactive)
REMARK    1  A    between atoms: C_22  and  O_1 
REMARK    2  A    between atoms: C_6  and  C_13 
REMARK    3  A    between atoms: C_13  and  C_20 
REMARK    4  A    between atoms: C_20  and  C_24 
REMARK    5  A    between atoms: C_25  and  C_24 
REMARK    6  A    between atoms: C_25  and  C_26 
REMARK    7  A    between atoms: C_25  and  C_27 
ROOT
ATOM      1  C   UNL d   1     -11.104   6.704 -29.385  0.00  0.00    -0.036 A 
ATOM      2  C   UNL d   1     -11.207   6.654 -28.391  0.00  0.00    -0.001 A 
ATOM      3  C   UNL d   1     -11.727   7.357 -27.906  0.00  0.00    -0.001 A 
ATOM      4  C   UNL d   1     -12.144   8.111 -28.414  0.00  0.00     0.003 A 
ATOM      5  C   UNL d   1     -10.561   5.924 -29.674  0.00  0.00    -0.002 A 
ATOM      6  C   UNL d   1     -11.521   7.458 -29.893  0.00  0.00     0.010 A 
ATOM      7  C   UNL d   1     -12.688   8.850 -27.922  0.00  0.00    -0.017 A 
ATOM      8  C   UNL d   1     -10.727   5.843 -28.076  0.00  0.00     0.006 A 
ATOM      9  C   UNL d   1     -12.041   8.161 -29.408  0.00  0.00     0.007 A 
ATOM     10  C   UNL d   1     -10.328   5.392 -28.868  0.00  0.00     0.006 A 
ATOM     11  C   UNL d   1     -11.826   7.291 -26.871  0.00  0.00     0.033 A 
ATOM     12  C   UNL d   1     -11.001   6.755 -30.378  0.00  0.00     0.016 C 
ATOM     13  C   UNL d   1     -12.800   8.804 -26.887  0.00  0.00    -0.072 A 
ATOM     14  C   UNL d   1     -13.131   9.659 -28.495  0.00  0.00     0.016 A 
ATOM     15  C   UNL d   1     -12.366   8.019 -26.358  0.00  0.00    -0.023 A 
ATOM     16  C   UNL d   1     -12.581   8.894 -28.916  0.00  0.00     0.020 C 
ATOM     17  C   UNL d   1     -13.362   9.564 -26.353  0.00  0.00     0.066 A 
ATOM     18  C   UNL d   1     -13.698  10.429 -27.983  0.00  0.00     0.033 A 
ATOM     19  C   UNL d   1     -13.814  10.381 -26.905  0.00  0.00     0.122 A 
ENDROOT
BRANCH   5  20
ATOM     20  C   UNL d   1     -10.295   5.711 -30.615  0.00  0.00    -0.014 C 
ATOM     21  C   UNL d   1     -10.978   5.375 -31.263  0.00  0.00     0.010 C 
BRANCH  20  22
ATOM     22  C   UNL d   1      -9.347   5.834 -30.906  0.00  0.00     0.005 C 
BRANCH  22  23
ATOM     23  C   UNL d   1      -9.108   5.765 -31.875  0.00  0.00     0.005 C 
BRANCH  23  24
ATOM     24  C   UNL d   1      -8.149   5.771 -32.155  0.00  0.00    -0.012 C 
BRANCH  24  25
ATOM     25  C   UNL d   1      -7.677   6.640 -32.305  0.00  0.00    -0.019 C 
ATOM     26  C   UNL d   1      -6.787   6.805 -31.881  0.00  0.00     0.010 C 
ATOM     27  C   UNL d   1      -8.096   7.345 -32.878  0.00  0.00     0.010 C 
ENDBRANCH  24  25
BRANCH  24  28
ATOM     28  C   UNL d   1      -7.661   4.908 -32.286  0.00  0.00     0.000 C 
ATOM     29  C   UNL d   1      -7.949   4.275 -33.006  0.00  0.00     0.005 C 
ENDBRANCH  24  28
ENDBRANCH  23  24
ENDBRANCH  22  23
ENDBRANCH  20  22
ENDBRANCH   5  20
BRANCH  19  30
ATOM     30  O   UNL d   1     -14.335  11.086 -26.423  0.00  0.00    -0.395 OA
ATOM     31  H   UNL d   1     -14.140  11.292 -25.872  0.00  0.00     0.210 HD
ENDBRANCH  19  30
TORSDOF 7
ENDMDL
MODEL 4
REMARK VINA RESULT:   -10.709     15.334     18.183
REMARK INTER + INTRA:          -2.324
REMARK INTER:                 -14.665
REMARK INTRA:                  12.342
REMARK UNBOUND:                12.455
REMARK  7 active torsions:
REMARK  status: ('A' for Active; 'I' for Inactive)
REMARK    1  A    between atoms: C_22  and  O_1 
REMARK    2  A    between atoms: C_6  and  C_13 
REMARK    3  A    between atoms: C_13  and  C_20 
REMARK    4  A    between atoms: C_20  and  C_24 
REMARK    5  A    between atoms: C_25  and  C_24 
REMARK    6  A    between atoms: C_25  and  C_26 
REMARK    7  A    between atoms: C_25  and  C_27 
ROOT
ATOM      1  C   UNL d   1       5.123  15.155 -31.433  0.00  0.00    -0.036 A 
ATOM      2  C   UNL d   1       5.297  14.204 -31.688  0.00  0.00    -0.001 A 
ATOM      3  C   UNL d   1       4.599  13.682 -32.179  0.00  0.00    -0.001 A 
ATOM      4  C   UNL d   1       3.727  14.112 -32.415  0.00  0.00     0.003 A 
ATOM      5  C   UNL d   1       5.927  15.494 -30.958  0.00  0.00    -0.002 A 
ATOM      6  C   UNL d   1       4.251  15.585 -31.669  0.00  0.00     0.010 A 
ATOM      7  C   UNL d   1       2.991  13.582 -32.927  0.00  0.00    -0.017 A 
ATOM      8  C   UNL d   1       6.207  13.964 -31.368  0.00  0.00     0.006 A 
ATOM      9  C   UNL d   1       3.553  15.063 -32.160  0.00  0.00     0.007 A 
ATOM     10  C   UNL d   1       6.596  14.761 -30.918  0.00  0.00     0.006 A 
ATOM     11  C   UNL d   1       4.795  12.692 -32.438  0.00  0.00     0.033 A 
ATOM     12  C   UNL d   1       4.949  16.106 -31.178  0.00  0.00     0.016 C 
ATOM     13  C   UNL d   1       3.165  12.590 -33.196  0.00  0.00    -0.072 A 
ATOM     14  C   UNL d   1       2.053  14.069 -33.172  0.00  0.00     0.016 A 
ATOM     15  C   UNL d   1       4.073  12.142 -32.950  0.00  0.00    -0.023 A 
ATOM     16  C   UNL d   1       2.824  14.533 -32.668  0.00  0.00     0.020 C 
ATOM     17  C   UNL d   1       2.413  12.017 -33.729  0.00  0.00     0.066 A 
ATOM     18  C   UNL d   1       1.286  13.516 -33.705  0.00  0.00     0.033 A 
ATOM     19  C   UNL d   1       1.467  12.484 -33.985  0.00  0.00     0.122 A 
ENDROOT
BRANCH   5  20
ATOM     20  C   UNL d   1       6.043  16.415 -30.585  0.00  0.00    -0.014 C 
ATOM     21  C   UNL d   1       5.945  16.572 -29.602  0.00  0.00     0.010 C 
BRANCH  20  22
ATOM     22  C   UNL d   1       6.258  17.178 -31.194  0.00  0.00     0.005 C 
BRANCH  22  23
ATOM     23  C   UNL d   1       6.953  17.848 -30.932  0.00  0.00     0.005 C 
BRANCH  23  24
ATOM     24  C   UNL d   1       7.328  18.473 -31.615  0.00  0.00    -0.012 C 
BRANCH  24  25
ATOM     25  C   UNL d   1       8.280  18.384 -31.906  0.00  0.00    -0.019 C 
ATOM     26  C   UNL d   1       8.502  18.320 -32.879  0.00  0.00     0.010 C 
ATOM     27  C   UNL d   1       9.012  18.360 -31.224  0.00  0.00     0.010 C 
ENDBRANCH  24  25
BRANCH  24  28
ATOM     28  C   UNL d   1       6.750  19.189 -32.008  0.00  0.00     0.000 C 
ATOM     29  C   UNL d   1       6.356  19.894 -31.417  0.00  0.00     0.005 C 
ENDBRANCH  24  28
ENDBRANCH  23  24
ENDBRANCH  22  23
ENDBRANCH  20  22
ENDBRANCH   5  20
BRANCH  19  30
ATOM     30  O   UNL d   1       0.768  11.965 -34.476  0.00  0.00    -0.395 OA
ATOM     31  H   UNL d   1       0.312  11.685 -34.162  0.00  0.00     0.210 HD
ENDBRANCH  19  30
TORSDOF 7
ENDMDL
MODEL 5
REMARK VINA RESULT:   -10.494     28.851     30.837
REMARK INTER + INTRA:          -2.027
REMARK INTER:                 -14.297
REMARK INTRA:                  12.270
REMARK UNBOUND:                12.455
REMARK  7 active torsions:
REMARK  status: ('A' for Active; 'I' for Inactive)
REMARK    1  A    between atoms: C_22  and  O_1 
REMARK    2  A    between atoms: C_6  and  C_13 
REMARK    3  A    between atoms: C_13  and  C_20 
REMARK    4  A    between atoms: C_20  and  C_24 
REMARK    5  A    between atoms: C_25  and  C_24 
REMARK    6  A    between atoms: C_25  and  C_26 
REMARK    7  A    between atoms: C_25  and  C_27 
ROOT
ATOM      1  C   UNL d   1       2.006  -0.661 -32.915  0.00  0.00    -0.036 A 
ATOM      2  C   UNL d   1       2.272  -0.945 -33.836  0.00  0.00    -0.001 A 
ATOM      3  C   UNL d   1       3.206  -1.255 -34.014  0.00  0.00    -0.001 A 
ATOM      4  C   UNL d   1       3.874  -1.281 -33.270  0.00  0.00     0.003 A 
ATOM      5  C   UNL d   1       1.050  -0.391 -32.944  0.00  0.00    -0.002 A 
ATOM      6  C   UNL d   1       2.674  -0.687 -32.171  0.00  0.00     0.010 A 
ATOM      7  C   UNL d   1       4.850  -1.601 -33.440  0.00  0.00    -0.017 A 
ATOM      8  C   UNL d   1       1.478  -0.848 -34.426  0.00  0.00     0.006 A 
ATOM      9  C   UNL d   1       3.608  -0.997 -32.349  0.00  0.00     0.007 A 
ATOM     10  C   UNL d   1       0.723  -0.506 -33.875  0.00  0.00     0.006 A 
ATOM     11  C   UNL d   1       3.468  -1.548 -34.979  0.00  0.00     0.033 A 
ATOM     12  C   UNL d   1       1.740  -0.377 -31.994  0.00  0.00     0.016 C 
ATOM     13  C   UNL d   1       5.135  -1.899 -34.397  0.00  0.00    -0.072 A 
ATOM     14  C   UNL d   1       5.558  -1.621 -32.617  0.00  0.00     0.016 A 
ATOM     15  C   UNL d   1       4.439  -1.872 -35.172  0.00  0.00    -0.023 A 
ATOM     16  C   UNL d   1       4.577  -1.316 -32.521  0.00  0.00     0.020 C 
ATOM     17  C   UNL d   1       6.147  -2.236 -34.598  0.00  0.00     0.066 A 
ATOM     18  C   UNL d   1       6.575  -1.954 -32.794  0.00  0.00     0.033 A 
ATOM     19  C   UNL d   1       6.871  -2.264 -33.791  0.00  0.00     0.122 A 
ENDROOT
BRANCH   5  20
ATOM     20  C   UNL d   1       0.509  -0.061 -32.169  0.00  0.00    -0.014 C 
ATOM     21  C   UNL d   1       0.411   0.921 -32.012  0.00  0.00     0.010 C 
BRANCH  20  22
ATOM     22  C   UNL d   1       0.068  -0.713 -31.554  0.00  0.00     0.005 C 
BRANCH  22  23
ATOM     23  C   UNL d   1      -0.902  -0.612 -31.329  0.00  0.00     0.005 C 
BRANCH  23  24
ATOM     24  C   UNL d   1      -1.334  -1.242 -30.685  0.00  0.00    -0.012 C 
BRANCH  24  25
ATOM     25  C   UNL d   1      -1.805  -0.886 -29.878  0.00  0.00    -0.019 C 
ATOM     26  C   UNL d   1      -1.500  -1.151 -28.964  0.00  0.00     0.010 C 
ATOM     27  C   UNL d   1      -2.582  -0.265 -29.986  0.00  0.00     0.010 C 
ENDBRANCH  24  25
BRANCH  24  28
ATOM     28  C   UNL d   1      -1.295  -2.228 -30.847  0.00  0.00     0.000 C 
ATOM     29  C   UNL d   1      -1.843  -2.636 -31.578  0.00  0.00     0.005 C 
ENDBRANCH  24  28
ENDBRANCH  23  24
ENDBRANCH  22  23
ENDBRANCH  20  22
ENDBRANCH   5  20
BRANCH  19  30
ATOM     30  O   UNL d   1       7.806  -2.573 -33.965  0.00  0.00    -0.395 OA
ATOM     31  H   UNL d   1       7.938  -3.179 -33.961  0.00  0.00     0.210 HD
ENDBRANCH  19  30
TORSDOF 7
ENDMDL
