MODEL 1
REMARK VINA RESULT:    -7.030      0.000      0.000
REMARK INTER + INTRA:          -4.130
REMARK INTER:                  -7.651
REMARK INTRA:                   3.520
REMARK UNBOUND:                 3.516
REMARK  2 active torsions:
REMARK  status: ('A' for Active; 'I' for Inactive)
REMARK    1  A    between atoms: C_5  and  O_1 
REMARK    2  A    between atoms: C_4  and  C_9 
ROOT
ATOM      1  C   UNL d   1       4.334  12.950  30.025  0.00  0.00     0.028 A 
ATOM      2  C   UNL d   1       4.668  12.092  29.635  0.00  0.00     0.019 A 
ATOM      3  C   UNL d   1       5.117  11.418  30.221  0.00  0.00    -0.003 A 
ATOM      4  C   UNL d   1       4.449  13.134  31.001  0.00  0.00     0.058 A 
ATOM      5  C   UNL d   1       5.233  11.602  31.197  0.00  0.00     0.009 A 
ATOM      6  C   UNL d   1       4.899  12.460  31.587  0.00  0.00     0.038 A 
ATOM      7  C   UNL d   1       3.864  13.662  29.427  0.00  0.00     0.012 A 
ATOM      8  C   UNL d   1       4.555  11.886  28.620  0.00  0.00    -0.019 A 
ATOM      9  C   UNL d   1       3.740  13.477  28.409  0.00  0.00     0.034 A 
ATOM     10  C   UNL d   1       3.997  14.018  30.888  0.00  0.00     0.046 C 
ATOM     11  C   UNL d   1       4.088  12.583  28.003  0.00  0.00    -0.087 A 
ATOM     12  C   UNL d   1       3.974  12.396  27.028  0.00  0.00     0.043 C 
ENDROOT
BRANCH   3  13
ATOM     13  C   UNL d   1       5.451  10.560  29.831  0.00  0.00    -0.018 C 
ATOM     14  C   UNL d   1       6.392  10.494  29.498  0.00  0.00     0.010 C 
ATOM     15  C   UNL d   1       4.845   9.767  29.774  0.00  0.00     0.010 C 
ENDBRANCH   3  13
BRANCH   4  16
ATOM     16  O   UNL d   1       4.323  13.736  31.790  0.00  0.00    -0.390 OA
ATOM     17  H   UNL d   1       3.752  13.906  31.962  0.00  0.00     0.210 HD
ENDBRANCH   4  16
TORSDOF 2
ENDMDL
MODEL 2
REMARK VINA RESULT:    -6.937      0.676      2.690
REMARK INTER + INTRA:          -4.029
REMARK INTER:                  -7.549
REMARK INTRA:                   3.520
REMARK UNBOUND:                 3.516
REMARK  2 active torsions:
REMARK  status: ('A' for Active; 'I' for Inactive)
REMARK    1  A    between atoms: C_5  and  O_1 
REMARK    2  A    between atoms: C_4  and  C_9 
ROOT
ATOM      1  C   UNL d   1       4.612  12.530  30.440  0.00  0.00     0.028 A 
ATOM      2  C   UNL d   1       4.401  12.396  29.472  0.00  0.00     0.019 A 
ATOM      3  C   UNL d   1       3.790  13.032  29.000  0.00  0.00    -0.003 A 
ATOM      4  C   UNL d   1       4.212  13.301  30.937  0.00  0.00     0.058 A 
ATOM      5  C   UNL d   1       3.390  13.802  29.497  0.00  0.00     0.009 A 
ATOM      6  C   UNL d   1       3.601  13.937  30.465  0.00  0.00     0.038 A 
ATOM      7  C   UNL d   1       5.246  11.877  30.945  0.00  0.00     0.012 A 
ATOM      8  C   UNL d   1       4.810  11.599  28.941  0.00  0.00    -0.019 A 
ATOM      9  C   UNL d   1       5.667  11.072  30.434  0.00  0.00     0.034 A 
ATOM     10  C   UNL d   1       4.686  13.011  31.768  0.00  0.00     0.046 C 
ATOM     11  C   UNL d   1       5.447  10.932  29.425  0.00  0.00    -0.087 A 
ATOM     12  C   UNL d   1       5.846  10.163  28.926  0.00  0.00     0.043 C 
ENDROOT
BRANCH   3  13
ATOM     13  C   UNL d   1       3.580  12.898  28.032  0.00  0.00    -0.018 C 
ATOM     14  C   UNL d   1       2.782  12.358  27.764  0.00  0.00     0.010 C 
ATOM     15  C   UNL d   1       4.167  13.304  27.331  0.00  0.00     0.010 C 
ENDBRANCH   3  13
BRANCH   4  16
ATOM     16  O   UNL d   1       4.102  13.823  31.782  0.00  0.00    -0.390 OA
ATOM     17  H   UNL d   1       3.537  13.912  32.021  0.00  0.00     0.210 HD
ENDBRANCH   4  16
TORSDOF 2
ENDMDL
MODEL 3
REMARK VINA RESULT:    -6.894      1.439      2.746
REMARK INTER + INTRA:          -3.983
REMARK INTER:                  -7.519
REMARK INTRA:                   3.536
REMARK UNBOUND:                 3.516
REMARK  2 active torsions:
REMARK  status: ('A' for Active; 'I' for Inactive)
REMARK    1  A    between atoms: C_5  and  O_1 
REMARK    2  A    between atoms: C_4  and  C_9 
ROOT
ATOM      1  C   UNL d   1       4.330  12.619  28.874  0.00  0.00     0.028 A 
ATOM      2  C   UNL d   1       4.659  11.989  29.577  0.00  0.00     0.019 A 
ATOM      3  C   UNL d   1       5.045  11.104  29.315  0.00  0.00    -0.003 A 
ATOM      4  C   UNL d   1       4.386  12.365  27.909  0.00  0.00     0.058 A 
ATOM      5  C   UNL d   1       5.101  10.850  28.349  0.00  0.00     0.009 A 
ATOM      6  C   UNL d   1       4.772  11.480  27.646  0.00  0.00     0.038 A 
ATOM      7  C   UNL d   1       3.926  13.544  29.132  0.00  0.00     0.012 A 
ATOM      8  C   UNL d   1       4.608  12.240  30.587  0.00  0.00    -0.019 A 
ATOM      9  C   UNL d   1       3.864  13.816  30.135  0.00  0.00     0.034 A 
ATOM     10  C   UNL d   1       3.974  13.239  27.654  0.00  0.00     0.046 C 
ATOM     11  C   UNL d   1       4.207  13.159  30.868  0.00  0.00    -0.087 A 
ATOM     12  C   UNL d   1       4.152  13.411  31.834  0.00  0.00     0.043 C 
ENDROOT
BRANCH   3  13
ATOM     13  C   UNL d   1       5.374  10.474  30.018  0.00  0.00    -0.018 C 
ATOM     14  C   UNL d   1       4.735   9.853  30.471  0.00  0.00     0.010 C 
ATOM     15  C   UNL d   1       6.342  10.466  30.268  0.00  0.00     0.010 C 
ENDBRANCH   3  13
BRANCH   4  16
ATOM     16  O   UNL d   1       4.229  12.582  26.945  0.00  0.00    -0.390 OA
ATOM     17  H   UNL d   1       4.193  13.173  26.763  0.00  0.00     0.210 HD
ENDBRANCH   4  16
TORSDOF 2
ENDMDL
MODEL 4
REMARK VINA RESULT:    -6.800      1.499      3.454
REMARK INTER + INTRA:          -3.880
REMARK INTER:                  -7.397
REMARK INTRA:                   3.517
REMARK UNBOUND:                 3.516
REMARK  2 active torsions:
REMARK  status: ('A' for Active; 'I' for Inactive)
REMARK    1  A    between atoms: C_5  and  O_1 
REMARK    2  A    between atoms: C_4  and  C_9 
ROOT
ATOM      1  C   UNL d   1       5.347  11.262  29.754  0.00  0.00     0.028 A 
ATOM      2  C   UNL d   1       4.714  11.920  29.346  0.00  0.00     0.019 A 
ATOM      3  C   UNL d   1       4.507  11.875  28.369  0.00  0.00    -0.003 A 
ATOM      4  C   UNL d   1       5.773  10.560  29.185  0.00  0.00     0.058 A 
ATOM      5  C   UNL d   1       4.934  11.173  27.800  0.00  0.00     0.009 A 
ATOM      6  C   UNL d   1       5.567  10.515  28.207  0.00  0.00     0.038 A 
ATOM      7  C   UNL d   1       5.572  11.296  30.771  0.00  0.00     0.012 A 
ATOM      8  C   UNL d   1       4.261  12.658  29.926  0.00  0.00    -0.019 A 
ATOM      9  C   UNL d   1       5.131  12.025  31.370  0.00  0.00     0.034 A 
ATOM     10  C   UNL d   1       6.258  10.206  29.985  0.00  0.00     0.046 C 
ATOM     11  C   UNL d   1       4.472  12.711  30.945  0.00  0.00    -0.087 A 
ATOM     12  C   UNL d   1       4.044  13.415  31.512  0.00  0.00     0.043 C 
ENDROOT
BRANCH   3  13
ATOM     13  C   UNL d   1       3.874  12.533  27.961  0.00  0.00    -0.018 C 
ATOM     14  C   UNL d   1       4.216  13.406  27.611  0.00  0.00     0.010 C 
ATOM     15  C   UNL d   1       2.899  12.319  27.903  0.00  0.00     0.010 C 
ENDBRANCH   3  13
BRANCH   4  16
ATOM     16  O   UNL d   1       6.385   9.774  29.092  0.00  0.00    -0.390 OA
ATOM     17  H   UNL d   1       6.165   9.232  28.886  0.00  0.00     0.210 HD
ENDBRANCH   4  16
TORSDOF 2
ENDMDL
MODEL 5
REMARK VINA RESULT:    -6.653      1.354      2.766
REMARK INTER + INTRA:          -3.720
REMARK INTER:                  -7.256
REMARK INTRA:                   3.536
REMARK UNBOUND:                 3.516
REMARK  2 active torsions:
REMARK  status: ('A' for Active; 'I' for Inactive)
REMARK    1  A    between atoms: C_5  and  O_1 
REMARK    2  A    between atoms: C_4  and  C_9 
ROOT
ATOM      1  C   UNL d   1       5.210  11.353  29.468  0.00  0.00     0.028 A 
ATOM      2  C   UNL d   1       4.614  12.082  29.805  0.00  0.00     0.019 A 
ATOM      3  C   UNL d   1       4.504  12.223  30.789  0.00  0.00    -0.003 A 
ATOM      4  C   UNL d   1       5.696  10.766  30.115  0.00  0.00     0.058 A 
ATOM      5  C   UNL d   1       4.990  11.635  31.436  0.00  0.00     0.009 A 
ATOM      6  C   UNL d   1       5.586  10.907  31.099  0.00  0.00     0.038 A 
ATOM      7  C   UNL d   1       5.335  11.193  28.446  0.00  0.00     0.012 A 
ATOM      8  C   UNL d   1       4.101  12.702  29.143  0.00  0.00    -0.019 A 
ATOM      9  C   UNL d   1       4.832  11.801  27.766  0.00  0.00     0.034 A 
ATOM     10  C   UNL d   1       6.104  10.263  29.353  0.00  0.00     0.046 C 
ATOM     11  C   UNL d   1       4.210  12.561  28.117  0.00  0.00    -0.087 A 
ATOM     12  C   UNL d   1       3.723  13.150  27.473  0.00  0.00     0.043 C 
ENDROOT
BRANCH   3  13
ATOM     13  C   UNL d   1       3.907  12.952  31.126  0.00  0.00    -0.018 C 
ATOM     14  C   UNL d   1       2.951  12.756  31.340  0.00  0.00     0.010 C 
ATOM     15  C   UNL d   1       4.268  13.876  31.248  0.00  0.00     0.010 C 
ENDBRANCH   3  13
BRANCH   4  16
ATOM     16  O   UNL d   1       6.321  10.006  30.294  0.00  0.00    -0.390 OA
ATOM     17  H   UNL d   1       6.716   9.819  29.854  0.00  0.00     0.210 HD
ENDBRANCH   4  16
TORSDOF 2
ENDMDL
