MODEL 1
REMARK VINA RESULT:    -8.539      0.000      0.000
REMARK INTER + INTRA:          -5.732
REMARK INTER:                  -9.473
REMARK INTRA:                   3.741
REMARK UNBOUND:                 3.556
REMARK  2 active torsions:
REMARK  status: ('A' for Active; 'I' for Inactive)
REMARK    1  A    between atoms: C_5  and  O_1 
REMARK    2  A    between atoms: C_4  and  C_9 
ROOT
ATOM      1  C   UNL d   1      -9.387  17.724 -20.252  0.00  0.00     0.028 A 
ATOM      2  C   UNL d   1      -9.746  17.163 -19.506  0.00  0.00     0.019 A 
ATOM      3  C   UNL d   1     -10.463  16.490 -19.688  0.00  0.00    -0.003 A 
ATOM      4  C   UNL d   1      -9.743  17.612 -21.179  0.00  0.00     0.058 A 
ATOM      5  C   UNL d   1     -10.819  16.377 -20.615  0.00  0.00     0.009 A 
ATOM      6  C   UNL d   1     -10.459  16.938 -21.361  0.00  0.00     0.038 A 
ATOM      7  C   UNL d   1      -8.640  18.431 -20.078  0.00  0.00     0.012 A 
ATOM      8  C   UNL d   1      -9.385  17.269 -18.534  0.00  0.00    -0.019 A 
ATOM      9  C   UNL d   1      -8.264  18.554 -19.114  0.00  0.00     0.034 A 
ATOM     10  C   UNL d   1      -9.122  18.325 -21.504  0.00  0.00     0.046 C 
ATOM     11  C   UNL d   1      -8.639  17.969 -18.337  0.00  0.00    -0.087 A 
ATOM     12  C   UNL d   1      -8.285  18.079 -17.409  0.00  0.00     0.043 C 
ENDROOT
BRANCH   3  13
ATOM     13  C   UNL d   1     -10.822  15.929 -18.942  0.00  0.00    -0.018 C 
ATOM     14  C   UNL d   1     -10.265  15.194 -18.556  0.00  0.00     0.010 C 
ATOM     15  C   UNL d   1     -11.739  16.103 -18.583  0.00  0.00     0.010 C 
ENDBRANCH   3  13
BRANCH   4  16
ATOM     16  O   UNL d   1      -9.741  17.870 -22.145  0.00  0.00    -0.390 OA
ATOM     17  H   UNL d   1      -9.947  18.429 -22.316  0.00  0.00     0.210 HD
ENDBRANCH   4  16
TORSDOF 2
ENDMDL
MODEL 2
REMARK VINA RESULT:    -8.424     37.368     39.001
REMARK INTER + INTRA:          -5.606
REMARK INTER:                  -9.221
REMARK INTRA:                   3.614
REMARK UNBOUND:                 3.556
REMARK  2 active torsions:
REMARK  status: ('A' for Active; 'I' for Inactive)
REMARK    1  A    between atoms: C_5  and  O_1 
REMARK    2  A    between atoms: C_4  and  C_9 
ROOT
ATOM      1  C   UNL d   1     -18.680 -10.495   5.180  0.00  0.00     0.028 A 
ATOM      2  C   UNL d   1     -19.312 -10.754   5.911  0.00  0.00     0.019 A 
ATOM      3  C   UNL d   1     -20.045 -11.410   5.729  0.00  0.00    -0.003 A 
ATOM      4  C   UNL d   1     -18.781 -10.891   4.268  0.00  0.00     0.058 A 
ATOM      5  C   UNL d   1     -20.146 -11.806   4.816  0.00  0.00     0.009 A 
ATOM      6  C   UNL d   1     -19.514 -11.546   4.086  0.00  0.00     0.038 A 
ATOM      7  C   UNL d   1     -17.912  -9.813   5.355  0.00  0.00     0.012 A 
ATOM      8  C   UNL d   1     -19.219 -10.351   6.867  0.00  0.00    -0.019 A 
ATOM      9  C   UNL d   1     -17.800  -9.397   6.303  0.00  0.00     0.034 A 
ATOM     10  C   UNL d   1     -17.994 -10.362   3.951  0.00  0.00     0.046 C 
ATOM     11  C   UNL d   1     -18.458  -9.667   7.064  0.00  0.00    -0.087 A 
ATOM     12  C   UNL d   1     -18.359  -9.273   7.978  0.00  0.00     0.043 C 
ENDROOT
BRANCH   3  13
ATOM     13  C   UNL d   1     -20.676 -11.670   6.460  0.00  0.00    -0.018 C 
ATOM     14  C   UNL d   1     -21.427 -11.060   6.711  0.00  0.00     0.010 C 
ATOM     15  C   UNL d   1     -20.556 -12.539   6.938  0.00  0.00     0.010 C 
ENDBRANCH   3  13
BRANCH   4  16
ATOM     16  O   UNL d   1     -18.475 -10.969   3.319  0.00  0.00    -0.390 OA
ATOM     17  H   UNL d   1     -18.383 -10.459   2.980  0.00  0.00     0.210 HD
ENDBRANCH   4  16
TORSDOF 2
ENDMDL
MODEL 3
REMARK VINA RESULT:    -8.412     35.415     37.062
REMARK INTER + INTRA:          -5.594
REMARK INTER:                  -9.130
REMARK INTRA:                   3.537
REMARK UNBOUND:                 3.556
REMARK  2 active torsions:
REMARK  status: ('A' for Active; 'I' for Inactive)
REMARK    1  A    between atoms: C_5  and  O_1 
REMARK    2  A    between atoms: C_4  and  C_9 
ROOT
ATOM      1  C   UNL d   1     -18.501 -10.906   3.450  0.00  0.00     0.028 A 
ATOM      2  C   UNL d   1     -17.972 -10.082   3.247  0.00  0.00     0.019 A 
ATOM      3  C   UNL d   1     -17.757  -9.433   3.976  0.00  0.00    -0.003 A 
ATOM      4  C   UNL d   1     -18.815 -11.081   4.383  0.00  0.00     0.058 A 
ATOM      5  C   UNL d   1     -18.072  -9.608   4.909  0.00  0.00     0.009 A 
ATOM      6  C   UNL d   1     -18.601 -10.432   5.113  0.00  0.00     0.038 A 
ATOM      7  C   UNL d   1     -18.733 -11.591   2.700  0.00  0.00     0.012 A 
ATOM      8  C   UNL d   1     -17.638  -9.886   2.279  0.00  0.00    -0.019 A 
ATOM      9  C   UNL d   1     -18.409 -11.416   1.726  0.00  0.00     0.034 A 
ATOM     10  C   UNL d   1     -19.245 -11.931   4.079  0.00  0.00     0.046 C 
ATOM     11  C   UNL d   1     -17.857 -10.557   1.514  0.00  0.00    -0.087 A 
ATOM     12  C   UNL d   1     -17.542 -10.379   0.582  0.00  0.00     0.043 C 
ENDROOT
BRANCH   3  13
ATOM     13  C   UNL d   1     -17.229  -8.609   3.773  0.00  0.00    -0.018 C 
ATOM     14  C   UNL d   1     -17.699  -7.758   3.539  0.00  0.00     0.010 C 
ATOM     15  C   UNL d   1     -16.229  -8.636   3.804  0.00  0.00     0.010 C 
ENDBRANCH   3  13
BRANCH   4  16
ATOM     16  O   UNL d   1     -19.302 -11.657   5.039  0.00  0.00    -0.390 OA
ATOM     17  H   UNL d   1     -19.079 -12.217   5.185  0.00  0.00     0.210 HD
ENDBRANCH   4  16
TORSDOF 2
ENDMDL
MODEL 4
REMARK VINA RESULT:    -8.332      1.218      2.744
REMARK INTER + INTRA:          -5.507
REMARK INTER:                  -9.030
REMARK INTRA:                   3.524
REMARK UNBOUND:                 3.556
REMARK  2 active torsions:
REMARK  status: ('A' for Active; 'I' for Inactive)
REMARK    1  A    between atoms: C_5  and  O_1 
REMARK    2  A    between atoms: C_4  and  C_9 
ROOT
ATOM      1  C   UNL d   1      -9.503  17.550 -19.527  0.00  0.00     0.028 A 
ATOM      2  C   UNL d   1      -9.622  17.047 -18.671  0.00  0.00     0.019 A 
ATOM      3  C   UNL d   1      -8.997  17.206 -17.907  0.00  0.00    -0.003 A 
ATOM      4  C   UNL d   1      -8.759  18.211 -19.620  0.00  0.00     0.058 A 
ATOM      5  C   UNL d   1      -8.253  17.867 -17.999  0.00  0.00     0.009 A 
ATOM      6  C   UNL d   1      -8.134  18.370 -18.856  0.00  0.00     0.038 A 
ATOM      7  C   UNL d   1     -10.147  17.395 -20.332  0.00  0.00     0.012 A 
ATOM      8  C   UNL d   1     -10.393  16.355 -18.560  0.00  0.00    -0.019 A 
ATOM      9  C   UNL d   1     -10.924  16.708 -20.244  0.00  0.00     0.034 A 
ATOM     10  C   UNL d   1      -9.051  18.410 -20.555  0.00  0.00     0.046 C 
ATOM     11  C   UNL d   1     -11.048  16.184 -19.351  0.00  0.00    -0.087 A 
ATOM     12  C   UNL d   1     -11.792  15.522 -19.256  0.00  0.00     0.043 C 
ENDROOT
BRANCH   3  13
ATOM     13  C   UNL d   1      -9.116  16.704 -17.051  0.00  0.00    -0.018 C 
ATOM     14  C   UNL d   1      -8.625  15.846 -16.902  0.00  0.00     0.010 C 
ATOM     15  C   UNL d   1      -9.727  17.059 -16.343  0.00  0.00     0.010 C 
ENDBRANCH   3  13
BRANCH   4  16
ATOM     16  O   UNL d   1      -8.260  18.883 -20.167  0.00  0.00    -0.390 OA
ATOM     17  H   UNL d   1      -7.867  19.276 -19.893  0.00  0.00     0.210 HD
ENDBRANCH   4  16
TORSDOF 2
ENDMDL
MODEL 5
REMARK VINA RESULT:    -8.245     35.530     37.065
REMARK INTER + INTRA:          -5.412
REMARK INTER:                  -8.941
REMARK INTRA:                   3.529
REMARK UNBOUND:                 3.556
REMARK  2 active torsions:
REMARK  status: ('A' for Active; 'I' for Inactive)
REMARK    1  A    between atoms: C_5  and  O_1 
REMARK    2  A    between atoms: C_4  and  C_9 
ROOT
ATOM      1  C   UNL d   1     -17.638  -9.860   3.910  0.00  0.00     0.028 A 
ATOM      2  C   UNL d   1     -17.992 -10.603   3.342  0.00  0.00     0.019 A 
ATOM      3  C   UNL d   1     -17.620 -10.753   2.426  0.00  0.00    -0.003 A 
ATOM      4  C   UNL d   1     -16.912  -9.267   3.562  0.00  0.00     0.058 A 
ATOM      5  C   UNL d   1     -16.894 -10.160   2.078  0.00  0.00     0.009 A 
ATOM      6  C   UNL d   1     -16.540  -9.417   2.646  0.00  0.00     0.038 A 
ATOM      7  C   UNL d   1     -18.015  -9.692   4.866  0.00  0.00     0.012 A 
ATOM      8  C   UNL d   1     -18.748 -11.230   3.691  0.00  0.00    -0.019 A 
ATOM      9  C   UNL d   1     -18.772 -10.306   5.236  0.00  0.00     0.034 A 
ATOM     10  C   UNL d   1     -16.922  -8.752   4.419  0.00  0.00     0.046 C 
ATOM     11  C   UNL d   1     -19.140 -11.080   4.644  0.00  0.00    -0.087 A 
ATOM     12  C   UNL d   1     -19.866 -11.675   4.989  0.00  0.00     0.043 C 
ENDROOT
BRANCH   3  13
ATOM     13  C   UNL d   1     -17.974 -11.496   1.858  0.00  0.00    -0.018 C 
ATOM     14  C   UNL d   1     -18.708 -11.318   1.202  0.00  0.00     0.010 C 
ATOM     15  C   UNL d   1     -17.594 -12.417   1.946  0.00  0.00     0.010 C 
ENDBRANCH   3  13
BRANCH   4  16
ATOM     16  O   UNL d   1     -16.288  -8.496   3.689  0.00  0.00    -0.390 OA
ATOM     17  H   UNL d   1     -16.027  -8.396   4.242  0.00  0.00     0.210 HD
ENDBRANCH   4  16
TORSDOF 2
ENDMDL
