MODEL 1
REMARK VINA RESULT:     0.000      0.000      0.000
REMARK INTER + INTRA:           3.491
REMARK INTER:                   0.000
REMARK INTRA:                   3.491
REMARK UNBOUND:                 3.491
REMARK  1 active torsions:
REMARK  status: ('A' for Active; 'I' for Inactive)
REMARK    1  A    between atoms: C_2  and  C_5 
ROOT
ATOM      1  C   UNL d   1     -21.605   4.550  11.838  0.00  0.00     0.021 A 
ATOM      2  C   UNL d   1     -21.129   3.986  12.512  0.00  0.00    -0.003 A 
ATOM      3  C   UNL d   1     -21.517   4.345  10.863  0.00  0.00     0.022 A 
ATOM      4  C   UNL d   1     -20.563   3.217  12.212  0.00  0.00     0.010 A 
ATOM      5  C   UNL d   1     -22.007   4.924  10.149  0.00  0.00     0.014 A 
ATOM      6  C   UNL d   1     -20.951   3.577  10.563  0.00  0.00    -0.084 A 
ATOM      7  C   UNL d   1     -20.475   3.013  11.237  0.00  0.00     0.034 A 
ATOM      8  C   UNL d   1     -22.190   5.346  12.167  0.00  0.00    -0.019 A 
ATOM      9  C   UNL d   1     -22.598   5.726  10.454  0.00  0.00     0.034 A 
ATOM     10  C   UNL d   1     -22.690   5.938  11.470  0.00  0.00    -0.087 A 
ATOM     11  C   UNL d   1     -20.862   3.373   9.588  0.00  0.00     0.014 C 
ATOM     12  C   UNL d   1     -23.254   6.705  11.774  0.00  0.00     0.043 C 
ENDROOT
BRANCH   2  13
ATOM     13  C   UNL d   1     -21.217   4.190  13.487  0.00  0.00    -0.018 C 
ATOM     14  C   UNL d   1     -20.574   4.816  13.927  0.00  0.00     0.010 C 
ATOM     15  C   UNL d   1     -21.949   3.767  14.022  0.00  0.00     0.010 C 
ENDBRANCH   2  13
TORSDOF 1
ENDMDL
MODEL 2
REMARK VINA RESULT:     0.000     16.764     17.570
REMARK INTER + INTRA:           3.491
REMARK INTER:                   0.000
REMARK INTRA:                   3.491
REMARK UNBOUND:                 3.491
REMARK  1 active torsions:
REMARK  status: ('A' for Active; 'I' for Inactive)
REMARK    1  A    between atoms: C_2  and  C_5 
ROOT
ATOM      1  C   UNL d   1      -5.132  10.266  11.026  0.00  0.00     0.021 A 
ATOM      2  C   UNL d   1      -5.925   9.666  11.132  0.00  0.00    -0.003 A 
ATOM      3  C   UNL d   1      -4.474  10.100  10.291  0.00  0.00     0.022 A 
ATOM      4  C   UNL d   1      -6.060   8.900  10.504  0.00  0.00     0.010 A 
ATOM      5  C   UNL d   1      -3.644  10.717  10.167  0.00  0.00     0.014 A 
ATOM      6  C   UNL d   1      -4.609   9.334   9.663  0.00  0.00    -0.084 A 
ATOM      7  C   UNL d   1      -5.402   8.734   9.769  0.00  0.00     0.034 A 
ATOM      8  C   UNL d   1      -5.005  11.060  11.688  0.00  0.00    -0.019 A 
ATOM      9  C   UNL d   1      -3.496  11.517  10.818  0.00  0.00     0.034 A 
ATOM     10  C   UNL d   1      -4.182  11.690  11.583  0.00  0.00    -0.087 A 
ATOM     11  C   UNL d   1      -3.951   9.168   8.928  0.00  0.00     0.014 C 
ATOM     12  C   UNL d   1      -4.050  12.455  12.213  0.00  0.00     0.043 C 
ENDROOT
BRANCH   2  13
ATOM     13  C   UNL d   1      -6.582   9.832  11.867  0.00  0.00    -0.018 C 
ATOM     14  C   UNL d   1      -7.370  10.427  11.708  0.00  0.00     0.010 C 
ATOM     15  C   UNL d   1      -6.453   9.403  12.761  0.00  0.00     0.010 C 
ENDBRANCH   2  13
TORSDOF 1
ENDMDL
MODEL 3
REMARK VINA RESULT:     0.000     16.492     17.291
REMARK INTER + INTRA:           3.491
REMARK INTER:                   0.000
REMARK INTRA:                   3.491
REMARK UNBOUND:                 3.491
REMARK  1 active torsions:
REMARK  status: ('A' for Active; 'I' for Inactive)
REMARK    1  A    between atoms: C_2  and  C_5 
ROOT
ATOM      1  C   UNL d   1      -6.074  11.761  11.158  0.00  0.00     0.021 A 
ATOM      2  C   UNL d   1      -6.486  10.867  10.985  0.00  0.00    -0.003 A 
ATOM      3  C   UNL d   1      -5.397  12.132  10.522  0.00  0.00     0.022 A 
ATOM      4  C   UNL d   1      -6.222  10.343  10.175  0.00  0.00     0.010 A 
ATOM      5  C   UNL d   1      -4.959  13.062  10.690  0.00  0.00     0.014 A 
ATOM      6  C   UNL d   1      -5.133  11.608   9.713  0.00  0.00    -0.084 A 
ATOM      7  C   UNL d   1      -5.545  10.713   9.539  0.00  0.00     0.034 A 
ATOM      8  C   UNL d   1      -6.360  12.295  12.006  0.00  0.00    -0.019 A 
ATOM      9  C   UNL d   1      -5.229  13.613  11.531  0.00  0.00     0.034 A 
ATOM     10  C   UNL d   1      -5.934  13.227  12.194  0.00  0.00    -0.087 A 
ATOM     11  C   UNL d   1      -4.456  11.978   9.077  0.00  0.00     0.014 C 
ATOM     12  C   UNL d   1      -6.201  13.748  13.004  0.00  0.00     0.043 C 
ENDROOT
BRANCH   2  13
ATOM     13  C   UNL d   1      -7.163  10.497  11.621  0.00  0.00    -0.018 C 
ATOM     14  C   UNL d   1      -8.135  10.691  11.486  0.00  0.00     0.010 C 
ATOM     15  C   UNL d   1      -6.869   9.932  12.392  0.00  0.00     0.010 C 
ENDBRANCH   2  13
TORSDOF 1
ENDMDL
MODEL 4
REMARK VINA RESULT:     0.000     17.169     17.798
REMARK INTER + INTRA:           3.491
REMARK INTER:                   0.000
REMARK INTRA:                   3.491
REMARK UNBOUND:                 3.491
REMARK  1 active torsions:
REMARK  status: ('A' for Active; 'I' for Inactive)
REMARK    1  A    between atoms: C_2  and  C_5 
ROOT
ATOM      1  C   UNL d   1      -5.555  11.523   9.782  0.00  0.00     0.021 A 
ATOM      2  C   UNL d   1      -5.151  10.630   9.977  0.00  0.00    -0.003 A 
ATOM      3  C   UNL d   1      -4.967  12.299   9.552  0.00  0.00     0.022 A 
ATOM      4  C   UNL d   1      -4.158  10.512   9.941  0.00  0.00     0.010 A 
ATOM      5  C   UNL d   1      -5.374  13.236   9.348  0.00  0.00     0.014 A 
ATOM      6  C   UNL d   1      -3.975  12.181   9.517  0.00  0.00    -0.084 A 
ATOM      7  C   UNL d   1      -3.571  11.287   9.711  0.00  0.00     0.034 A 
ATOM      8  C   UNL d   1      -6.591  11.631   9.824  0.00  0.00    -0.019 A 
ATOM      9  C   UNL d   1      -6.407  13.367   9.383  0.00  0.00     0.034 A 
ATOM     10  C   UNL d   1      -7.019  12.558   9.623  0.00  0.00    -0.087 A 
ATOM     11  C   UNL d   1      -3.387  12.956   9.287  0.00  0.00     0.014 C 
ATOM     12  C   UNL d   1      -8.012  12.673   9.659  0.00  0.00     0.043 C 
ENDROOT
BRANCH   2  13
ATOM     13  C   UNL d   1      -5.739   9.854  10.207  0.00  0.00    -0.018 C 
ATOM     14  C   UNL d   1      -6.087   9.259   9.482  0.00  0.00     0.010 C 
ATOM     15  C   UNL d   1      -5.977   9.673  11.161  0.00  0.00     0.010 C 
ENDBRANCH   2  13
TORSDOF 1
ENDMDL
MODEL 5
REMARK VINA RESULT:     0.000     18.597     19.354
REMARK INTER + INTRA:           3.491
REMARK INTER:                   0.000
REMARK INTRA:                   3.491
REMARK UNBOUND:                 3.491
REMARK  1 active torsions:
REMARK  status: ('A' for Active; 'I' for Inactive)
REMARK    1  A    between atoms: C_2  and  C_5 
ROOT
ATOM      1  C   UNL d   1     -27.897  -5.989  -3.042  0.00  0.00     0.021 A 
ATOM      2  C   UNL d   1     -27.633  -6.836  -2.579  0.00  0.00    -0.003 A 
ATOM      3  C   UNL d   1     -28.812  -5.610  -2.906  0.00  0.00     0.022 A 
ATOM      4  C   UNL d   1     -28.284  -7.303  -1.982  0.00  0.00     0.010 A 
ATOM      5  C   UNL d   1     -29.102  -4.729  -3.380  0.00  0.00     0.014 A 
ATOM      6  C   UNL d   1     -29.463  -6.077  -2.308  0.00  0.00    -0.084 A 
ATOM      7  C   UNL d   1     -29.199  -6.924  -1.846  0.00  0.00     0.034 A 
ATOM      8  C   UNL d   1     -27.207  -5.514  -3.661  0.00  0.00    -0.019 A 
ATOM      9  C   UNL d   1     -28.429  -4.236  -4.004  0.00  0.00     0.034 A 
ATOM     10  C   UNL d   1     -27.475  -4.632  -4.146  0.00  0.00    -0.087 A 
ATOM     11  C   UNL d   1     -30.379  -5.698  -2.172  0.00  0.00     0.014 C 
ATOM     12  C   UNL d   1     -26.821  -4.167  -4.743  0.00  0.00     0.043 C 
ENDROOT
BRANCH   2  13
ATOM     13  C   UNL d   1     -26.718  -7.215  -2.715  0.00  0.00    -0.018 C 
ATOM     14  C   UNL d   1     -26.550  -7.864  -3.458  0.00  0.00     0.010 C 
ATOM     15  C   UNL d   1     -25.970  -6.946  -2.108  0.00  0.00     0.010 C 
ENDBRANCH   2  13
TORSDOF 1
ENDMDL
