MODEL 1
REMARK VINA RESULT:   -13.152      0.000      0.000
REMARK INTER + INTRA:         -14.163
REMARK INTER:                 -14.690
REMARK INTRA:                   0.528
REMARK UNBOUND:                 0.528
REMARK  3 active torsions:
REMARK  status: ('A' for Active; 'I' for Inactive)
REMARK    1  A    between atoms: C_21  and  O_1 
REMARK    2  A    between atoms: O_2  and  C_31 
REMARK    3  A    between atoms: C_17  and  C_31 
ROOT
ATOM      1  C   UNL d   1      -3.860  -6.319  34.016  0.00  0.00    -0.028 A 
ATOM      2  C   UNL d   1      -4.305  -6.448  33.130  0.00  0.00     0.007 A 
ATOM      3  C   UNL d   1      -3.760  -6.761  32.299  0.00  0.00    -0.035 A 
ATOM      4  C   UNL d   1      -4.396  -6.019  34.805  0.00  0.00    -0.013 A 
ATOM      5  C   UNL d   1      -2.738  -6.942  32.393  0.00  0.00     0.004 A 
ATOM      6  C   UNL d   1      -2.839  -6.495  34.133  0.00  0.00     0.011 A 
ATOM      7  C   UNL d   1      -5.376  -5.847  34.708  0.00  0.00    -0.069 A 
ATOM      8  C   UNL d   1      -2.276  -6.808  33.316  0.00  0.00     0.007 A 
ATOM      9  C   UNL d   1      -2.151  -7.269  31.541  0.00  0.00    -0.017 A 
ATOM     10  C   UNL d   1      -5.947  -5.533  35.521  0.00  0.00     0.038 A 
ATOM     11  C   UNL d   1      -5.285  -6.276  33.032  0.00  0.00     0.033 A 
ATOM     12  C   UNL d   1      -3.918  -5.889  35.722  0.00  0.00     0.016 A 
ATOM     13  C   UNL d   1      -4.264  -6.894  31.347  0.00  0.00     0.012 A 
ATOM     14  C   UNL d   1      -5.491  -5.397  36.447  0.00  0.00     0.053 A 
ATOM     15  C   UNL d   1      -4.470  -5.576  36.549  0.00  0.00     0.022 A 
ATOM     16  C   UNL d   1      -3.143  -6.292  34.713  0.00  0.00     0.016 C 
ATOM     17  C   UNL d   1      -5.820  -5.975  33.822  0.00  0.00    -0.022 A 
ATOM     18  C   UNL d   1      -2.632  -7.408  30.580  0.00  0.00     0.126 A 
ATOM     19  C   UNL d   1      -4.740  -6.587  32.209  0.00  0.00     0.016 C 
ATOM     20  C   UNL d   1      -3.696  -7.220  30.482  0.00  0.00     0.033 A 
ATOM     21  C   UNL d   1      -7.009  -5.353  35.391  0.00  0.00    -0.005 A 
ATOM     22  C   UNL d   1      -3.492  -6.096  35.228  0.00  0.00     0.021 C 
ATOM     23  C   UNL d   1      -6.065  -5.071  37.308  0.00  0.00     0.021 A 
ATOM     24  C   UNL d   1      -7.604  -5.026  36.237  0.00  0.00    -0.014 A 
ATOM     25  C   UNL d   1      -1.274  -7.541  31.145  0.00  0.00     0.018 C 
ATOM     26  C   UNL d   1      -1.330  -7.293  32.112  0.00  0.00     0.018 C 
ATOM     27  C   UNL d   1      -7.129  -4.884  37.203  0.00  0.00     0.006 A 
ATOM     28  C   UNL d   1      -7.437  -5.487  34.496  0.00  0.00     0.011 C 
ATOM     29  C   UNL d   1      -8.583  -4.857  36.128  0.00  0.00     0.010 C 
ENDROOT
BRANCH  14  30
ATOM     30  C   UNL d   1      -5.054  -5.266  37.337  0.00  0.00     0.149 C 
ATOM     31  O   UNL d   1      -5.054  -6.008  38.007  0.00  0.00    -0.649 OA
BRANCH  30  32
ATOM     32  O   UNL d   1      -4.616  -4.394  37.556  0.00  0.00    -0.776 OA
ATOM     33  H   UNL d   1      -4.049  -4.386  37.806  0.00  0.00     0.167 HD
ENDBRANCH  30  32
ENDBRANCH  14  30
BRANCH  18  34
ATOM     34  O   UNL d   1      -2.101  -7.709  29.788  0.00  0.00    -0.395 OA
ATOM     35  H   UNL d   1      -2.307  -8.175  29.434  0.00  0.00     0.210 HD
ENDBRANCH  18  34
TORSDOF 3
ENDMDL
MODEL 2
REMARK VINA RESULT:   -12.719      1.275      2.544
REMARK INTER + INTRA:         -13.678
REMARK INTER:                 -14.206
REMARK INTRA:                   0.528
REMARK UNBOUND:                 0.528
REMARK  3 active torsions:
REMARK  status: ('A' for Active; 'I' for Inactive)
REMARK    1  A    between atoms: C_21  and  O_1 
REMARK    2  A    between atoms: O_2  and  C_31 
REMARK    3  A    between atoms: C_17  and  C_31 
ROOT
ATOM      1  C   UNL d   1      -4.391  -6.287  33.728  0.00  0.00    -0.028 A 
ATOM      2  C   UNL d   1      -3.462  -6.331  34.097  0.00  0.00     0.007 A 
ATOM      3  C   UNL d   1      -2.663  -6.627  33.499  0.00  0.00    -0.035 A 
ATOM      4  C   UNL d   1      -5.148  -6.000  34.314  0.00  0.00    -0.013 A 
ATOM      5  C   UNL d   1      -2.833  -6.882  32.503  0.00  0.00     0.004 A 
ATOM      6  C   UNL d   1      -4.584  -6.537  32.735  0.00  0.00     0.011 A 
ATOM      7  C   UNL d   1      -4.978  -5.757  35.269  0.00  0.00    -0.069 A 
ATOM      8  C   UNL d   1      -3.800  -6.837  32.119  0.00  0.00     0.007 A 
ATOM      9  C   UNL d   1      -2.015  -7.194  31.861  0.00  0.00    -0.017 A 
ATOM     10  C   UNL d   1      -5.757  -5.457  35.892  0.00  0.00     0.038 A 
ATOM     11  C   UNL d   1      -3.291  -6.087  35.052  0.00  0.00     0.033 A 
ATOM     12  C   UNL d   1      -6.110  -5.960  33.916  0.00  0.00     0.016 A 
ATOM     13  C   UNL d   1      -1.664  -6.667  33.921  0.00  0.00     0.012 A 
ATOM     14  C   UNL d   1      -6.727  -5.409  35.515  0.00  0.00     0.053 A 
ATOM     15  C   UNL d   1      -6.904  -5.662  34.520  0.00  0.00     0.022 A 
ATOM     16  C   UNL d   1      -5.148  -6.351  33.078  0.00  0.00     0.016 C 
ATOM     17  C   UNL d   1      -4.049  -5.801  35.638  0.00  0.00    -0.022 A 
ATOM     18  C   UNL d   1      -1.009  -7.241  32.260  0.00  0.00     0.126 A 
ATOM     19  C   UNL d   1      -2.500  -6.383  34.454  0.00  0.00     0.016 C 
ATOM     20  C   UNL d   1      -0.831  -6.976  33.297  0.00  0.00     0.033 A 
ATOM     21  C   UNL d   1      -5.547  -5.198  36.924  0.00  0.00    -0.005 A 
ATOM     22  C   UNL d   1      -5.642  -6.164  33.460  0.00  0.00     0.021 C 
ATOM     23  C   UNL d   1      -7.554  -5.099  36.145  0.00  0.00     0.021 A 
ATOM     24  C   UNL d   1      -6.359  -4.885  37.573  0.00  0.00    -0.014 A 
ATOM     25  C   UNL d   1      -1.681  -7.500  30.970  0.00  0.00     0.018 C 
ATOM     26  C   UNL d   1      -2.654  -7.308  31.099  0.00  0.00     0.018 C 
ATOM     27  C   UNL d   1      -7.369  -4.835  37.181  0.00  0.00     0.006 A 
ATOM     28  C   UNL d   1      -4.612  -5.247  37.277  0.00  0.00     0.011 C 
ATOM     29  C   UNL d   1      -6.176  -4.644  38.526  0.00  0.00     0.010 C 
ENDROOT
BRANCH  14  30
ATOM     30  C   UNL d   1      -7.658  -5.363  35.154  0.00  0.00     0.149 C 
ATOM     31  O   UNL d   1      -8.013  -4.498  34.799  0.00  0.00    -0.649 OA
BRANCH  30  32
ATOM     32  O   UNL d   1      -8.233  -6.180  35.148  0.00  0.00    -0.776 OA
ATOM     33  H   UNL d   1      -8.730  -6.212  35.517  0.00  0.00     0.167 HD
ENDBRANCH  30  32
ENDBRANCH  14  30
BRANCH  18  34
ATOM     34  O   UNL d   1      -0.248  -7.527  31.678  0.00  0.00    -0.395 OA
ATOM     35  H   UNL d   1       0.295  -7.230  31.708  0.00  0.00     0.210 HD
ENDBRANCH  18  34
TORSDOF 3
ENDMDL
MODEL 3
REMARK VINA RESULT:   -12.708     25.984     28.260
REMARK INTER + INTRA:         -13.666
REMARK INTER:                 -14.187
REMARK INTRA:                   0.521
REMARK UNBOUND:                 0.528
REMARK  3 active torsions:
REMARK  status: ('A' for Active; 'I' for Inactive)
REMARK    1  A    between atoms: C_21  and  O_1 
REMARK    2  A    between atoms: O_2  and  C_31 
REMARK    3  A    between atoms: C_17  and  C_31 
ROOT
ATOM      1  C   UNL d   1     -25.177   2.005  17.880  0.00  0.00    -0.028 A 
ATOM      2  C   UNL d   1     -25.990   2.230  17.342  0.00  0.00     0.007 A 
ATOM      3  C   UNL d   1     -26.881   2.501  17.809  0.00  0.00    -0.035 A 
ATOM      4  C   UNL d   1     -24.329   1.746  17.418  0.00  0.00    -0.013 A 
ATOM      5  C   UNL d   1     -26.926   2.540  18.849  0.00  0.00     0.004 A 
ATOM      6  C   UNL d   1     -25.199   2.037  18.921  0.00  0.00     0.011 A 
ATOM      7  C   UNL d   1     -24.293   1.711  16.419  0.00  0.00    -0.069 A 
ATOM      8  C   UNL d   1     -26.079   2.306  19.408  0.00  0.00     0.007 A 
ATOM      9  C   UNL d   1     -27.843   2.820  19.356  0.00  0.00    -0.017 A 
ATOM     10  C   UNL d   1     -23.417   1.443  15.924  0.00  0.00     0.038 A 
ATOM     11  C   UNL d   1     -25.955   2.195  16.343  0.00  0.00     0.033 A 
ATOM     12  C   UNL d   1     -23.490   1.516  17.992  0.00  0.00     0.016 A 
ATOM     13  C   UNL d   1     -27.750   2.740  17.205  0.00  0.00     0.012 A 
ATOM     14  C   UNL d   1     -22.566   1.209  16.477  0.00  0.00     0.053 A 
ATOM     15  C   UNL d   1     -22.603   1.245  17.518  0.00  0.00     0.022 A 
ATOM     16  C   UNL d   1     -24.588   1.853  18.673  0.00  0.00     0.016 C 
ATOM     17  C   UNL d   1     -25.106   1.936  15.882  0.00  0.00    -0.022 A 
ATOM     18  C   UNL d   1     -28.725   3.063  18.774  0.00  0.00     0.126 A 
ATOM     19  C   UNL d   1     -26.838   2.464  16.810  0.00  0.00     0.016 C 
ATOM     20  C   UNL d   1     -28.679   3.023  17.690  0.00  0.00     0.033 A 
ATOM     21  C   UNL d   1     -23.402   1.413  14.841  0.00  0.00    -0.005 A 
ATOM     22  C   UNL d   1     -24.034   1.684  18.372  0.00  0.00     0.021 C 
ATOM     23  C   UNL d   1     -21.641   0.926  15.985  0.00  0.00     0.021 A 
ATOM     24  C   UNL d   1     -22.489   1.133  14.325  0.00  0.00    -0.014 A 
ATOM     25  C   UNL d   1     -28.350   2.989  20.201  0.00  0.00     0.018 C 
ATOM     26  C   UNL d   1     -27.391   2.709  20.241  0.00  0.00     0.018 C 
ATOM     27  C   UNL d   1     -21.603   0.889  14.901  0.00  0.00     0.006 A 
ATOM     28  C   UNL d   1     -24.225   1.640  14.319  0.00  0.00     0.011 C 
ATOM     29  C   UNL d   1     -22.465   1.102  13.326  0.00  0.00     0.010 C 
ENDROOT
BRANCH  14  30
ATOM     30  C   UNL d   1     -21.749   0.983  17.008  0.00  0.00     0.149 C 
ATOM     31  O   UNL d   1     -21.585   0.039  17.295  0.00  0.00    -0.649 OA
BRANCH  30  32
ATOM     32  O   UNL d   1     -21.096   1.700  17.252  0.00  0.00    -0.776 OA
ATOM     33  H   UNL d   1     -20.986   1.830  17.848  0.00  0.00     0.167 HD
ENDBRANCH  30  32
ENDBRANCH  14  30
BRANCH  18  34
ATOM     34  O   UNL d   1     -29.575   3.322  19.231  0.00  0.00    -0.395 OA
ATOM     35  H   UNL d   1     -29.807   3.892  19.155  0.00  0.00     0.210 HD
ENDBRANCH  18  34
TORSDOF 3
ENDMDL
MODEL 4
REMARK VINA RESULT:   -12.162      1.169      5.554
REMARK INTER + INTRA:         -13.057
REMARK INTER:                 -13.577
REMARK INTRA:                   0.520
REMARK UNBOUND:                 0.528
REMARK  3 active torsions:
REMARK  status: ('A' for Active; 'I' for Inactive)
REMARK    1  A    between atoms: C_21  and  O_1 
REMARK    2  A    between atoms: O_2  and  C_31 
REMARK    3  A    between atoms: C_17  and  C_31 
ROOT
ATOM      1  C   UNL d   1      -4.315  -6.126  34.575  0.00  0.00    -0.028 A 
ATOM      2  C   UNL d   1      -5.274  -6.034  34.308  0.00  0.00     0.007 A 
ATOM      3  C   UNL d   1      -5.992  -5.717  34.994  0.00  0.00    -0.035 A 
ATOM      4  C   UNL d   1      -3.637  -6.431  33.906  0.00  0.00    -0.013 A 
ATOM      5  C   UNL d   1      -5.706  -5.494  35.971  0.00  0.00     0.004 A 
ATOM      6  C   UNL d   1      -4.007  -5.909  35.546  0.00  0.00     0.011 A 
ATOM      7  C   UNL d   1      -3.919  -6.644  32.970  0.00  0.00    -0.069 A 
ATOM      8  C   UNL d   1      -4.707  -5.591  36.248  0.00  0.00     0.007 A 
ATOM      9  C   UNL d   1      -6.436  -5.163  36.702  0.00  0.00    -0.017 A 
ATOM     10  C   UNL d   1      -3.224  -6.962  32.262  0.00  0.00     0.038 A 
ATOM     11  C   UNL d   1      -5.556  -6.246  33.372  0.00  0.00     0.033 A 
ATOM     12  C   UNL d   1      -2.642  -6.523  34.199  0.00  0.00     0.016 A 
ATOM     13  C   UNL d   1      -7.027  -5.624  34.681  0.00  0.00     0.012 A 
ATOM     14  C   UNL d   1      -2.223  -7.061  32.533  0.00  0.00     0.053 A 
ATOM     15  C   UNL d   1      -1.930  -6.840  33.508  0.00  0.00     0.022 A 
ATOM     16  C   UNL d   1      -3.492  -6.111  35.143  0.00  0.00     0.016 C 
ATOM     17  C   UNL d   1      -4.878  -6.551  32.703  0.00  0.00    -0.022 A 
ATOM     18  C   UNL d   1      -7.476  -5.062  36.412  0.00  0.00     0.126 A 
ATOM     19  C   UNL d   1      -6.266  -5.931  34.056  0.00  0.00     0.016 C 
ATOM     20  C   UNL d   1      -7.774  -5.294  35.395  0.00  0.00     0.033 A 
ATOM     21  C   UNL d   1      -3.553  -7.187  31.253  0.00  0.00    -0.005 A 
ATOM     22  C   UNL d   1      -3.049  -6.310  34.706  0.00  0.00     0.021 C 
ATOM     23  C   UNL d   1      -1.481  -7.392  31.813  0.00  0.00     0.021 A 
ATOM     24  C   UNL d   1      -2.829  -7.519  30.516  0.00  0.00    -0.014 A 
ATOM     25  C   UNL d   1      -6.661  -4.864  37.629  0.00  0.00     0.018 C 
ATOM     26  C   UNL d   1      -5.717  -5.095  37.393  0.00  0.00     0.018 C 
ATOM     27  C   UNL d   1      -1.787  -7.622  30.798  0.00  0.00     0.006 A 
ATOM     28  C   UNL d   1      -4.517  -7.088  31.004  0.00  0.00     0.011 C 
ATOM     29  C   UNL d   1      -3.122  -7.728  29.583  0.00  0.00     0.010 C 
ENDROOT
BRANCH  14  30
ATOM     30  C   UNL d   1      -1.262  -7.157  32.792  0.00  0.00     0.149 C 
ATOM     31  O   UNL d   1      -0.634  -6.387  32.673  0.00  0.00    -0.649 OA
BRANCH  30  32
ATOM     32  O   UNL d   1      -0.929  -8.020  33.171  0.00  0.00    -0.776 OA
ATOM     33  H   UNL d   1      -0.650  -8.432  32.802  0.00  0.00     0.167 HD
ENDBRANCH  30  32
ENDBRANCH  14  30
BRANCH  18  34
ATOM     34  O   UNL d   1      -8.157  -4.757  37.078  0.00  0.00    -0.395 OA
ATOM     35  H   UNL d   1      -8.512  -5.173  37.372  0.00  0.00     0.210 HD
ENDBRANCH  18  34
TORSDOF 3
ENDMDL
MODEL 5
REMARK VINA RESULT:   -12.091     71.300     72.753
REMARK INTER + INTRA:         -12.978
REMARK INTER:                 -13.510
REMARK INTRA:                   0.532
REMARK UNBOUND:                 0.528
REMARK  3 active torsions:
REMARK  status: ('A' for Active; 'I' for Inactive)
REMARK    1  A    between atoms: C_21  and  O_1 
REMARK    2  A    between atoms: O_2  and  C_31 
REMARK    3  A    between atoms: C_17  and  C_31 
ROOT
ATOM      1  C   UNL d   1      -9.844  -0.204 -37.698  0.00  0.00    -0.028 A 
ATOM      2  C   UNL d   1      -9.552  -0.388 -38.637  0.00  0.00     0.007 A 
ATOM      3  C   UNL d   1      -8.653  -0.877 -38.832  0.00  0.00    -0.035 A 
ATOM      4  C   UNL d   1     -10.710   0.265 -37.527  0.00  0.00    -0.013 A 
ATOM      5  C   UNL d   1      -8.049  -1.178 -38.037  0.00  0.00     0.004 A 
ATOM      6  C   UNL d   1      -9.256  -0.497 -36.889  0.00  0.00     0.011 A 
ATOM      7  C   UNL d   1     -11.284   0.552 -38.294  0.00  0.00    -0.069 A 
ATOM      8  C   UNL d   1      -8.354  -0.986 -37.060  0.00  0.00     0.007 A 
ATOM      9  C   UNL d   1      -7.109  -1.688 -38.216  0.00  0.00    -0.017 A 
ATOM     10  C   UNL d   1     -12.189   1.042 -38.131  0.00  0.00     0.038 A 
ATOM     11  C   UNL d   1     -10.127  -0.102 -39.404  0.00  0.00     0.033 A 
ATOM     12  C   UNL d   1     -11.000   0.450 -36.543  0.00  0.00     0.016 A 
ATOM     13  C   UNL d   1      -8.357  -1.065 -39.858  0.00  0.00     0.012 A 
ATOM     14  C   UNL d   1     -12.499   1.237 -37.156  0.00  0.00     0.053 A 
ATOM     15  C   UNL d   1     -11.901   0.939 -36.356  0.00  0.00     0.022 A 
ATOM     16  C   UNL d   1      -9.834  -0.181 -36.699  0.00  0.00     0.016 C 
ATOM     17  C   UNL d   1     -10.992   0.368 -39.232  0.00  0.00    -0.022 A 
ATOM     18  C   UNL d   1      -6.792  -1.887 -39.234  0.00  0.00     0.126 A 
ATOM     19  C   UNL d   1      -9.233  -0.587 -39.593  0.00  0.00     0.016 C 
ATOM     20  C   UNL d   1      -7.421  -1.574 -40.061  0.00  0.00     0.033 A 
ATOM     21  C   UNL d   1     -12.794   1.343 -38.978  0.00  0.00    -0.005 A 
ATOM     22  C   UNL d   1     -10.399   0.125 -36.586  0.00  0.00     0.021 C 
ATOM     23  C   UNL d   1     -13.437   1.746 -36.961  0.00  0.00     0.021 A 
ATOM     24  C   UNL d   1     -13.737   1.854 -38.809  0.00  0.00    -0.014 A 
ATOM     25  C   UNL d   1      -6.279  -2.124 -37.869  0.00  0.00     0.018 C 
ATOM     26  C   UNL d   1      -6.949  -1.745 -37.231  0.00  0.00     0.018 C 
ATOM     27  C   UNL d   1     -14.060   2.057 -37.793  0.00  0.00     0.006 A 
ATOM     28  C   UNL d   1     -12.487   1.151 -39.911  0.00  0.00     0.011 C 
ATOM     29  C   UNL d   1     -14.303   2.135 -39.583  0.00  0.00     0.010 C 
ENDROOT
BRANCH  14  30
ATOM     30  C   UNL d   1     -12.797   1.424 -36.220  0.00  0.00     0.149 C 
ATOM     31  O   UNL d   1     -12.591   2.307 -35.797  0.00  0.00    -0.649 OA
BRANCH  30  32
ATOM     32  O   UNL d   1     -13.301   0.730 -35.707  0.00  0.00    -0.776 OA
ATOM     33  H   UNL d   1     -13.894   0.826 -35.554  0.00  0.00     0.167 HD
ENDBRANCH  30  32
ENDBRANCH  14  30
BRANCH  18  34
ATOM     34  O   UNL d   1      -5.927  -2.357 -39.410  0.00  0.00    -0.395 OA
ATOM     35  H   UNL d   1      -5.677  -2.345 -39.978  0.00  0.00     0.210 HD
ENDBRANCH  18  34
TORSDOF 3
ENDMDL
