MODEL 1
REMARK VINA RESULT:    -9.639      0.000      0.000
REMARK INTER + INTRA:          -0.832
REMARK INTER:                 -13.286
REMARK INTRA:                  12.454
REMARK UNBOUND:                12.470
REMARK  10 active torsions:
REMARK  status: ('A' for Active; 'I' for Inactive)
REMARK    1  A    between atoms: C_16  and  O_2 
REMARK    2  A    between atoms: O_2  and  C_18 
REMARK    3  A    between atoms: C_12  and  O_3 
REMARK    4  A    between atoms: C_13  and  O_4 
REMARK    5  A    between atoms: C_14  and  O_5 
REMARK    6  A    between atoms: O_8  and  C_24 
REMARK    7  A    between atoms: O_9  and  C_29 
REMARK    8  A    between atoms: O_10  and  C_30 
REMARK    9  A    between atoms: O_11  and  C_32 
REMARK   10  A    between atoms: C_19  and  C_23 
ROOT
ATOM      1  O   UNL d   1      30.882  29.771  16.093  0.00  0.00    -0.306 OA
ATOM      2  O   UNL d   1      31.605  31.089  18.689  0.00  0.00    -0.284 OA
ATOM      3  C   UNL d   1      31.665  31.051  16.958  0.00  0.00     0.157 A 
ATOM      4  C   UNL d   1      31.424  30.612  16.093  0.00  0.00     0.124 A 
ATOM      5  C   UNL d   1      31.364  30.649  17.823  0.00  0.00     0.223 A 
ATOM      6  C   UNL d   1      30.823  29.809  17.823  0.00  0.00     0.084 A 
ATOM      7  C   UNL d   1      30.582  29.369  16.958  0.00  0.00     0.096 A 
ATOM      8  C   UNL d   1      30.518  29.402  18.732  0.00  0.00     0.085 A 
ATOM      9  C   UNL d   1      30.019  28.493  16.941  0.00  0.00     0.075 A 
ATOM     10  C   UNL d   1      29.953  28.526  18.740  0.00  0.00     0.074 A 
ATOM     11  C   UNL d   1      29.702  28.068  17.838  0.00  0.00     0.071 A 
ENDROOT
BRANCH   3  12
ATOM     12  O   UNL d   1      32.206  31.892  16.959  0.00  0.00    -0.311 OA
BRANCH  12  13
ATOM     13  C   UNL d   1      31.792  32.753  17.254  0.00  0.00     0.298 A 
ATOM     14  O   UNL d   1      30.833  32.944  17.044  0.00  0.00    -0.351 OA
ATOM     15  C   UNL d   1      30.419  33.805  17.339  0.00  0.00     0.152 A 
ATOM     16  C   UNL d   1      30.964  34.475  17.844  0.00  0.00     0.178 A 
ATOM     17  C   UNL d   1      29.460  33.997  17.130  0.00  0.00     0.042 C 
ATOM     18  C   UNL d   1      31.923  34.284  18.053  0.00  0.00     0.183 A 
ATOM     19  C   UNL d   1      32.337  33.423  17.758  0.00  0.00     0.205 A 
BRANCH  16  20
ATOM     20  O   UNL d   1      30.550  35.336  18.139  0.00  0.00    -0.390 OA
ATOM     21  H   UNL d   1      30.909  35.802  18.335  0.00  0.00     0.210 HD
ENDBRANCH  16  20
BRANCH  18  22
ATOM     22  O   UNL d   1      32.468  34.954  18.558  0.00  0.00    -0.390 OA
ATOM     23  H   UNL d   1      32.203  35.298  19.001  0.00  0.00     0.210 HD
ENDBRANCH  18  22
BRANCH  19  24
ATOM     24  O   UNL d   1      33.296  33.232  17.967  0.00  0.00    -0.388 OA
ATOM     25  H   UNL d   1      33.688  33.080  17.512  0.00  0.00     0.210 HD
ENDBRANCH  19  24
ENDBRANCH  12  13
ENDBRANCH   3  12
BRANCH   4  26
ATOM     26  C   UNL d   1      31.724  31.014  15.228  0.00  0.00     0.004 A 
ATOM     27  C   UNL d   1      32.694  31.012  14.986  0.00  0.00     0.053 A 
ATOM     28  C   UNL d   1      32.994  31.413  14.121  0.00  0.00     0.099 A 
ATOM     29  C   UNL d   1      32.324  31.817  13.497  0.00  0.00     0.098 A 
ATOM     30  C   UNL d   1      31.354  31.819  13.739  0.00  0.00     0.040 A 
ATOM     31  C   UNL d   1      31.054  31.417  14.605  0.00  0.00     0.017 A 
BRANCH  28  32
ATOM     32  O   UNL d   1      33.965  31.411  13.878  0.00  0.00    -0.358 OA
ATOM     33  H   UNL d   1      34.155  31.692  13.359  0.00  0.00     0.217 HD
ENDBRANCH  28  32
BRANCH  29  34
ATOM     34  O   UNL d   1      32.625  32.219  12.632  0.00  0.00    -0.358 OA
ATOM     35  H   UNL d   1      32.392  32.762  12.445  0.00  0.00     0.217 HD
ENDBRANCH  29  34
ENDBRANCH   4  26
BRANCH   8  36
ATOM     36  O   UNL d   1      30.764  29.850  19.592  0.00  0.00    -0.360 OA
ATOM     37  H   UNL d   1      30.865  29.509  20.101  0.00  0.00     0.217 HD
ENDBRANCH   8  36
BRANCH  11  38
ATOM     38  O   UNL d   1      29.161  27.227  17.834  0.00  0.00    -0.361 OA
ATOM     39  H   UNL d   1      29.265  26.790  18.261  0.00  0.00     0.217 HD
ENDBRANCH  11  38
TORSDOF 10
ENDMDL
MODEL 2
REMARK VINA RESULT:    -9.602     44.744     47.416
REMARK INTER + INTRA:          -0.780
REMARK INTER:                 -13.138
REMARK INTRA:                  12.358
REMARK UNBOUND:                12.470
REMARK  10 active torsions:
REMARK  status: ('A' for Active; 'I' for Inactive)
REMARK    1  A    between atoms: C_16  and  O_2 
REMARK    2  A    between atoms: O_2  and  C_18 
REMARK    3  A    between atoms: C_12  and  O_3 
REMARK    4  A    between atoms: C_13  and  O_4 
REMARK    5  A    between atoms: C_14  and  O_5 
REMARK    6  A    between atoms: O_8  and  C_24 
REMARK    7  A    between atoms: O_9  and  C_29 
REMARK    8  A    between atoms: O_10  and  C_30 
REMARK    9  A    between atoms: O_11  and  C_32 
REMARK   10  A    between atoms: C_19  and  C_23 
ROOT
ATOM      1  O   UNL d   1      31.985 -13.290   1.264  0.00  0.00    -0.306 OA
ATOM      2  O   UNL d   1      32.637 -10.588   0.135  0.00  0.00    -0.284 OA
ATOM      3  C   UNL d   1      32.982 -12.280   0.271  0.00  0.00     0.157 A 
ATOM      4  C   UNL d   1      32.765 -13.181   0.647  0.00  0.00     0.124 A 
ATOM      5  C   UNL d   1      32.420 -11.489   0.511  0.00  0.00     0.223 A 
ATOM      6  C   UNL d   1      31.640 -11.598   1.128  0.00  0.00     0.084 A 
ATOM      7  C   UNL d   1      31.423 -12.499   1.504  0.00  0.00     0.096 A 
ATOM      8  C   UNL d   1      31.064 -10.765   1.369  0.00  0.00     0.085 A 
ATOM      9  C   UNL d   1      30.614 -12.629   2.148  0.00  0.00     0.075 A 
ATOM     10  C   UNL d   1      30.250 -10.871   2.011  0.00  0.00     0.074 A 
ATOM     11  C   UNL d   1      30.024 -11.809   2.403  0.00  0.00     0.071 A 
ENDROOT
BRANCH   3  12
ATOM     12  O   UNL d   1      33.762 -12.171  -0.346  0.00  0.00    -0.311 OA
BRANCH  12  13
ATOM     13  C   UNL d   1      33.609 -11.977  -1.315  0.00  0.00     0.298 A 
ATOM     14  O   UNL d   1      32.768 -12.285  -1.760  0.00  0.00    -0.351 OA
ATOM     15  C   UNL d   1      32.616 -12.091  -2.729  0.00  0.00     0.152 A 
ATOM     16  C   UNL d   1      33.304 -11.589  -3.253  0.00  0.00     0.178 A 
ATOM     17  C   UNL d   1      31.775 -12.398  -3.174  0.00  0.00     0.042 C 
ATOM     18  C   UNL d   1      34.145 -11.281  -2.808  0.00  0.00     0.183 A 
ATOM     19  C   UNL d   1      34.298 -11.475  -1.839  0.00  0.00     0.205 A 
BRANCH  16  20
ATOM     20  O   UNL d   1      33.152 -11.395  -4.222  0.00  0.00    -0.390 OA
ATOM     21  H   UNL d   1      33.189 -10.812  -4.431  0.00  0.00     0.210 HD
ENDBRANCH  16  20
BRANCH  18  22
ATOM     22  O   UNL d   1      34.834 -10.779  -3.332  0.00  0.00    -0.390 OA
ATOM     23  H   UNL d   1      34.835 -10.810  -3.951  0.00  0.00     0.210 HD
ENDBRANCH  18  22
BRANCH  19  24
ATOM     24  O   UNL d   1      35.139 -11.167  -1.393  0.00  0.00    -0.388 OA
ATOM     25  H   UNL d   1      35.415 -11.527  -0.970  0.00  0.00     0.210 HD
ENDBRANCH  19  24
ENDBRANCH  12  13
ENDBRANCH   3  12
BRANCH   4  26
ATOM     26  C   UNL d   1      33.327 -13.972   0.407  0.00  0.00     0.004 A 
ATOM     27  C   UNL d   1      32.972 -14.666  -0.219  0.00  0.00     0.053 A 
ATOM     28  C   UNL d   1      33.534 -15.458  -0.459  0.00  0.00     0.099 A 
ATOM     29  C   UNL d   1      34.452 -15.555  -0.074  0.00  0.00     0.098 A 
ATOM     30  C   UNL d   1      34.807 -14.860   0.552  0.00  0.00     0.040 A 
ATOM     31  C   UNL d   1      34.245 -14.069   0.793  0.00  0.00     0.017 A 
BRANCH  28  32
ATOM     32  O   UNL d   1      33.179 -16.152  -1.085  0.00  0.00    -0.358 OA
ATOM     33  H   UNL d   1      33.549 -16.397  -1.518  0.00  0.00     0.217 HD
ENDBRANCH  28  32
BRANCH  29  34
ATOM     34  O   UNL d   1      35.014 -16.346  -0.314  0.00  0.00    -0.358 OA
ATOM     35  H   UNL d   1      34.940 -16.882  -0.012  0.00  0.00     0.217 HD
ENDBRANCH  29  34
ENDBRANCH   4  26
BRANCH   8  36
ATOM     36  O   UNL d   1      31.290  -9.869   0.987  0.00  0.00    -0.360 OA
ATOM     37  H   UNL d   1      31.812  -9.581   1.160  0.00  0.00     0.217 HD
ENDBRANCH   8  36
BRANCH  11  38
ATOM     38  O   UNL d   1      29.245 -11.922   3.020  0.00  0.00    -0.361 OA
ATOM     39  H   UNL d   1      29.225 -11.608   3.555  0.00  0.00     0.217 HD
ENDBRANCH  11  38
TORSDOF 10
ENDMDL
MODEL 3
REMARK VINA RESULT:    -9.480     61.627     63.782
REMARK INTER + INTRA:          -0.612
REMARK INTER:                 -12.917
REMARK INTRA:                  12.305
REMARK UNBOUND:                12.470
REMARK  10 active torsions:
REMARK  status: ('A' for Active; 'I' for Inactive)
REMARK    1  A    between atoms: C_16  and  O_2 
REMARK    2  A    between atoms: O_2  and  C_18 
REMARK    3  A    between atoms: C_12  and  O_3 
REMARK    4  A    between atoms: C_13  and  O_4 
REMARK    5  A    between atoms: C_14  and  O_5 
REMARK    6  A    between atoms: O_8  and  C_24 
REMARK    7  A    between atoms: O_9  and  C_29 
REMARK    8  A    between atoms: O_10  and  C_30 
REMARK    9  A    between atoms: O_11  and  C_32 
REMARK   10  A    between atoms: C_19  and  C_23 
ROOT
ATOM      1  O   UNL d   1       9.199 -27.394  26.891  0.00  0.00    -0.306 OA
ATOM      2  O   UNL d   1       7.409 -25.575  28.468  0.00  0.00    -0.284 OA
ATOM      3  C   UNL d   1       8.433 -26.970  28.386  0.00  0.00     0.157 A 
ATOM      4  C   UNL d   1       9.029 -27.576  27.860  0.00  0.00     0.124 A 
ATOM      5  C   UNL d   1       8.006 -26.181  27.943  0.00  0.00     0.223 A 
ATOM      6  C   UNL d   1       8.176 -25.999  26.974  0.00  0.00     0.084 A 
ATOM      7  C   UNL d   1       8.772 -26.606  26.449  0.00  0.00     0.096 A 
ATOM      8  C   UNL d   1       7.724 -25.174  26.526  0.00  0.00     0.085 A 
ATOM      9  C   UNL d   1       8.959 -26.429  25.439  0.00  0.00     0.075 A 
ATOM     10  C   UNL d   1       7.896 -24.978  25.518  0.00  0.00     0.074 A 
ATOM     11  C   UNL d   1       8.518 -25.610  24.970  0.00  0.00     0.071 A 
ENDROOT
BRANCH   3  12
ATOM     12  O   UNL d   1       8.263 -27.152  29.354  0.00  0.00    -0.311 OA
BRANCH  12  13
ATOM     13  C   UNL d   1       8.644 -26.545  30.051  0.00  0.00     0.298 A 
ATOM     14  O   UNL d   1       9.433 -25.969  29.835  0.00  0.00    -0.351 OA
ATOM     15  C   UNL d   1       9.814 -25.362  30.533  0.00  0.00     0.152 A 
ATOM     16  C   UNL d   1       9.408 -25.332  31.446  0.00  0.00     0.178 A 
ATOM     17  C   UNL d   1      10.603 -24.786  30.317  0.00  0.00     0.042 C 
ATOM     18  C   UNL d   1       8.620 -25.908  31.662  0.00  0.00     0.183 A 
ATOM     19  C   UNL d   1       8.238 -26.515  30.964  0.00  0.00     0.205 A 
BRANCH  16  20
ATOM     20  O   UNL d   1       9.789 -24.725  32.143  0.00  0.00    -0.390 OA
ATOM     21  H   UNL d   1      10.367 -24.815  32.350  0.00  0.00     0.210 HD
ENDBRANCH  16  20
BRANCH  18  22
ATOM     22  O   UNL d   1       8.213 -25.878  32.575  0.00  0.00    -0.390 OA
ATOM     23  H   UNL d   1       8.131 -26.402  32.895  0.00  0.00     0.210 HD
ENDBRANCH  18  22
BRANCH  19  24
ATOM     24  O   UNL d   1       7.450 -27.091  31.180  0.00  0.00    -0.388 OA
ATOM     25  H   UNL d   1       7.446 -27.429  31.700  0.00  0.00     0.210 HD
ENDBRANCH  19  24
ENDBRANCH  12  13
ENDBRANCH   3  12
BRANCH   4  26
ATOM     26  C   UNL d   1       9.456 -28.364  28.303  0.00  0.00     0.004 A 
ATOM     27  C   UNL d   1       8.910 -29.173  28.520  0.00  0.00     0.053 A 
ATOM     28  C   UNL d   1       9.337 -29.961  28.962  0.00  0.00     0.099 A 
ATOM     29  C   UNL d   1      10.310 -29.941  29.189  0.00  0.00     0.098 A 
ATOM     30  C   UNL d   1      10.857 -29.132  28.972  0.00  0.00     0.040 A 
ATOM     31  C   UNL d   1      10.430 -28.344  28.529  0.00  0.00     0.017 A 
BRANCH  28  32
ATOM     32  O   UNL d   1       8.790 -30.770  29.179  0.00  0.00    -0.358 OA
ATOM     33  H   UNL d   1       9.069 -31.299  29.341  0.00  0.00     0.217 HD
ENDBRANCH  28  32
BRANCH  29  34
ATOM     34  O   UNL d   1      10.737 -30.729  29.632  0.00  0.00    -0.358 OA
ATOM     35  H   UNL d   1      10.404 -31.239  29.746  0.00  0.00     0.217 HD
ENDBRANCH  29  34
ENDBRANCH   4  26
BRANCH   8  36
ATOM     36  O   UNL d   1       7.129 -24.575  27.061  0.00  0.00    -0.360 OA
ATOM     37  H   UNL d   1       6.536 -24.731  27.156  0.00  0.00     0.217 HD
ENDBRANCH   8  36
BRANCH  11  38
ATOM     38  O   UNL d   1       8.690 -25.431  24.001  0.00  0.00    -0.361 OA
ATOM     39  H   UNL d   1       8.403 -25.769  23.568  0.00  0.00     0.217 HD
ENDBRANCH  11  38
TORSDOF 10
ENDMDL
MODEL 4
REMARK VINA RESULT:    -9.277     60.975     63.104
REMARK INTER + INTRA:          -0.332
REMARK INTER:                 -12.638
REMARK INTRA:                  12.307
REMARK UNBOUND:                12.470
REMARK  10 active torsions:
REMARK  status: ('A' for Active; 'I' for Inactive)
REMARK    1  A    between atoms: C_16  and  O_2 
REMARK    2  A    between atoms: O_2  and  C_18 
REMARK    3  A    between atoms: C_12  and  O_3 
REMARK    4  A    between atoms: C_13  and  O_4 
REMARK    5  A    between atoms: C_14  and  O_5 
REMARK    6  A    between atoms: O_8  and  C_24 
REMARK    7  A    between atoms: O_9  and  C_29 
REMARK    8  A    between atoms: O_10  and  C_30 
REMARK    9  A    between atoms: O_11  and  C_32 
REMARK   10  A    between atoms: C_19  and  C_23 
ROOT
ATOM      1  O   UNL d   1      11.756 -26.999  30.912  0.00  0.00    -0.306 OA
ATOM      2  O   UNL d   1      10.433 -24.330  30.555  0.00  0.00    -0.284 OA
ATOM      3  C   UNL d   1      10.570 -26.005  30.135  0.00  0.00     0.157 A 
ATOM      4  C   UNL d   1      11.011 -26.894  30.254  0.00  0.00     0.124 A 
ATOM      5  C   UNL d   1      10.874 -25.219  30.674  0.00  0.00     0.223 A 
ATOM      6  C   UNL d   1      11.620 -25.324  31.332  0.00  0.00     0.084 A 
ATOM      7  C   UNL d   1      12.061 -26.213  31.451  0.00  0.00     0.096 A 
ATOM      8  C   UNL d   1      11.926 -24.497  31.886  0.00  0.00     0.085 A 
ATOM      9  C   UNL d   1      12.839 -26.338  32.133  0.00  0.00     0.075 A 
ATOM     10  C   UNL d   1      12.703 -24.598  32.574  0.00  0.00     0.074 A 
ATOM     11  C   UNL d   1      13.162 -25.524  32.698  0.00  0.00     0.071 A 
ENDROOT
BRANCH   3  12
ATOM     12  O   UNL d   1       9.824 -25.900  29.477  0.00  0.00    -0.311 OA
BRANCH  12  13
ATOM     13  C   UNL d   1       8.898 -25.703  29.798  0.00  0.00     0.298 A 
ATOM     14  O   UNL d   1       8.608 -26.006  30.706  0.00  0.00    -0.351 OA
ATOM     15  C   UNL d   1       7.682 -25.809  31.027  0.00  0.00     0.152 A 
ATOM     16  C   UNL d   1       7.045 -25.308  30.440  0.00  0.00     0.178 A 
ATOM     17  C   UNL d   1       7.392 -26.112  31.934  0.00  0.00     0.042 C 
ATOM     18  C   UNL d   1       7.335 -25.004  29.532  0.00  0.00     0.183 A 
ATOM     19  C   UNL d   1       8.261 -25.202  29.211  0.00  0.00     0.205 A 
BRANCH  16  20
ATOM     20  O   UNL d   1       6.119 -25.110  30.761  0.00  0.00    -0.390 OA
ATOM     21  H   UNL d   1       6.006 -24.592  31.083  0.00  0.00     0.210 HD
ENDBRANCH  16  20
BRANCH  18  22
ATOM     22  O   UNL d   1       6.699 -24.503  28.946  0.00  0.00    -0.390 OA
ATOM     23  H   UNL d   1       6.208 -24.793  28.702  0.00  0.00     0.210 HD
ENDBRANCH  18  22
BRANCH  19  24
ATOM     24  O   UNL d   1       8.551 -24.898  28.304  0.00  0.00    -0.388 OA
ATOM     25  H   UNL d   1       8.176 -24.977  27.816  0.00  0.00     0.210 HD
ENDBRANCH  19  24
ENDBRANCH  12  13
ENDBRANCH   3  12
BRANCH   4  26
ATOM     26  C   UNL d   1      10.706 -27.679  29.715  0.00  0.00     0.004 A 
ATOM     27  C   UNL d   1      10.936 -27.738  28.743  0.00  0.00     0.053 A 
ATOM     28  C   UNL d   1      10.631 -28.524  28.204  0.00  0.00     0.099 A 
ATOM     29  C   UNL d   1      10.097 -29.250  28.637  0.00  0.00     0.098 A 
ATOM     30  C   UNL d   1       9.867 -29.191  29.608  0.00  0.00     0.040 A 
ATOM     31  C   UNL d   1      10.171 -28.405  30.147  0.00  0.00     0.017 A 
BRANCH  28  32
ATOM     32  O   UNL d   1      10.861 -28.583  27.233  0.00  0.00    -0.358 OA
ATOM     33  H   UNL d   1      10.515 -28.285  26.814  0.00  0.00     0.217 HD
ENDBRANCH  28  32
BRANCH  29  34
ATOM     34  O   UNL d   1       9.792 -30.035  28.098  0.00  0.00    -0.358 OA
ATOM     35  H   UNL d   1       9.296 -30.361  28.277  0.00  0.00     0.217 HD
ENDBRANCH  29  34
ENDBRANCH   4  26
BRANCH   8  36
ATOM     36  O   UNL d   1      11.478 -23.612  31.759  0.00  0.00    -0.360 OA
ATOM     37  H   UNL d   1      11.319 -23.271  32.253  0.00  0.00     0.217 HD
ENDBRANCH   8  36
BRANCH  11  38
ATOM     38  O   UNL d   1      13.908 -25.633  33.355  0.00  0.00    -0.361 OA
ATOM     39  H   UNL d   1      14.247 -25.141  33.523  0.00  0.00     0.217 HD
ENDBRANCH  11  38
TORSDOF 10
ENDMDL
MODEL 5
REMARK VINA RESULT:    -9.162     44.664     47.591
REMARK INTER + INTRA:          -0.173
REMARK INTER:                 -13.001
REMARK INTRA:                  12.829
REMARK UNBOUND:                12.470
REMARK  10 active torsions:
REMARK  status: ('A' for Active; 'I' for Inactive)
REMARK    1  A    between atoms: C_16  and  O_2 
REMARK    2  A    between atoms: O_2  and  C_18 
REMARK    3  A    between atoms: C_12  and  O_3 
REMARK    4  A    between atoms: C_13  and  O_4 
REMARK    5  A    between atoms: C_14  and  O_5 
REMARK    6  A    between atoms: O_8  and  C_24 
REMARK    7  A    between atoms: O_9  and  C_29 
REMARK    8  A    between atoms: O_10  and  C_30 
REMARK    9  A    between atoms: O_11  and  C_32 
REMARK   10  A    between atoms: C_19  and  C_23 
ROOT
ATOM      1  O   UNL d   1      31.719 -11.750   1.197  0.00  0.00    -0.306 OA
ATOM      2  O   UNL d   1      29.918 -13.587  -0.346  0.00  0.00    -0.284 OA
ATOM      3  C   UNL d   1      31.511 -13.064   0.087  0.00  0.00     0.157 A 
ATOM      4  C   UNL d   1      32.111 -12.451   0.602  0.00  0.00     0.124 A 
ATOM      5  C   UNL d   1      30.518 -12.975   0.168  0.00  0.00     0.223 A 
ATOM      6  C   UNL d   1      30.126 -12.274   0.764  0.00  0.00     0.084 A 
ATOM      7  C   UNL d   1      30.726 -11.661   1.278  0.00  0.00     0.096 A 
ATOM      8  C   UNL d   1      29.090 -12.193   0.838  0.00  0.00     0.085 A 
ATOM      9  C   UNL d   1      30.332 -10.926   1.902  0.00  0.00     0.075 A 
ATOM     10  C   UNL d   1      28.673 -11.465   1.456  0.00  0.00     0.074 A 
ATOM     11  C   UNL d   1      29.299 -10.827   1.992  0.00  0.00     0.071 A 
ENDROOT
BRANCH   3  12
ATOM     12  O   UNL d   1      31.903 -13.765  -0.508  0.00  0.00    -0.311 OA
BRANCH  12  13
ATOM     13  C   UNL d   1      31.917 -13.629  -1.499  0.00  0.00     0.298 A 
ATOM     14  O   UNL d   1      31.592 -12.768  -1.890  0.00  0.00    -0.351 OA
ATOM     15  C   UNL d   1      31.606 -12.632  -2.881  0.00  0.00     0.152 A 
ATOM     16  C   UNL d   1      31.945 -13.357  -3.480  0.00  0.00     0.178 A 
ATOM     17  C   UNL d   1      31.280 -11.771  -3.272  0.00  0.00     0.042 C 
ATOM     18  C   UNL d   1      32.271 -14.218  -3.089  0.00  0.00     0.183 A 
ATOM     19  C   UNL d   1      32.257 -14.354  -2.098  0.00  0.00     0.205 A 
BRANCH  16  20
ATOM     20  O   UNL d   1      31.959 -13.221  -4.471  0.00  0.00    -0.390 OA
ATOM     21  H   UNL d   1      31.810 -12.669  -4.710  0.00  0.00     0.210 HD
ENDBRANCH  16  20
BRANCH  18  22
ATOM     22  O   UNL d   1      32.610 -14.943  -3.688  0.00  0.00    -0.390 OA
ATOM     23  H   UNL d   1      32.214 -15.351  -3.935  0.00  0.00     0.210 HD
ENDBRANCH  18  22
BRANCH  19  24
ATOM     24  O   UNL d   1      32.582 -15.215  -1.707  0.00  0.00    -0.388 OA
ATOM     25  H   UNL d   1      32.644 -15.715  -2.068  0.00  0.00     0.210 HD
ENDBRANCH  19  24
ENDBRANCH  12  13
ENDBRANCH   3  12
BRANCH   4  26
ATOM     26  C   UNL d   1      33.104 -12.540   0.521  0.00  0.00     0.004 A 
ATOM     27  C   UNL d   1      33.610 -11.944  -0.102  0.00  0.00     0.053 A 
ATOM     28  C   UNL d   1      34.603 -12.032  -0.182  0.00  0.00     0.099 A 
ATOM     29  C   UNL d   1      35.089 -12.718   0.359  0.00  0.00     0.098 A 
ATOM     30  C   UNL d   1      34.583 -13.315   0.982  0.00  0.00     0.040 A 
ATOM     31  C   UNL d   1      33.590 -13.226   1.063  0.00  0.00     0.017 A 
BRANCH  28  32
ATOM     32  O   UNL d   1      35.109 -11.436  -0.805  0.00  0.00    -0.358 OA
ATOM     33  H   UNL d   1      35.630 -11.638  -1.073  0.00  0.00     0.217 HD
ENDBRANCH  28  32
BRANCH  29  34
ATOM     34  O   UNL d   1      36.082 -12.807   0.278  0.00  0.00    -0.358 OA
ATOM     35  H   UNL d   1      36.380 -13.253   0.590  0.00  0.00     0.217 HD
ENDBRANCH  29  34
ENDBRANCH   4  26
BRANCH   8  36
ATOM     36  O   UNL d   1      28.499 -12.811   0.319  0.00  0.00    -0.360 OA
ATOM     37  H   UNL d   1      28.722 -13.351   0.110  0.00  0.00     0.217 HD
ENDBRANCH   8  36
BRANCH  11  38
ATOM     38  O   UNL d   1      28.910 -10.125   2.588  0.00  0.00    -0.361 OA
ATOM     39  H   UNL d   1      28.302 -10.002   2.567  0.00  0.00     0.217 HD
ENDBRANCH  11  38
TORSDOF 10
ENDMDL
