MODEL 1
REMARK VINA RESULT:     0.000      0.000      0.000
REMARK INTER + INTRA:           1.665
REMARK INTER:                   0.000
REMARK INTRA:                   1.665
REMARK UNBOUND:                 1.665
REMARK  4 active torsions:
REMARK  status: ('A' for Active; 'I' for Inactive)
REMARK    1  A    between atoms: O_1  and  C_6 
REMARK    2  A    between atoms: O_2  and  C_8 
REMARK    3  A    between atoms: C_3  and  C_4 
REMARK    4  A    between atoms: C_4  and  C_10 
ROOT
ATOM      1  C   UNL d   1      12.720  -6.219  14.218  0.00  0.00    -0.052 A 
ATOM      2  C   UNL d   1      13.203  -6.867  14.807  0.00  0.00     0.047 A 
ATOM      3  C   UNL d   1      13.754  -7.596  14.401  0.00  0.00     0.101 A 
ATOM      4  C   UNL d   1      12.789  -6.300  13.224  0.00  0.00     0.010 A 
ATOM      5  C   UNL d   1      13.823  -7.677  13.407  0.00  0.00     0.099 A 
ATOM      6  C   UNL d   1      13.340  -7.029  12.818  0.00  0.00     0.040 A 
ENDROOT
BRANCH   1   7
ATOM      7  C   UNL d   1      12.168  -5.490  14.624  0.00  0.00     0.065 C 
BRANCH   7   8
ATOM      8  C   UNL d   1      11.235  -5.680  14.929  0.00  0.00    -0.032 C 
ATOM      9  C   UNL d   1      10.674  -4.945  15.309  0.00  0.00     0.007 C 
ENDBRANCH   7   8
ENDBRANCH   1   7
BRANCH   3  10
ATOM     10  O   UNL d   1      14.237  -8.245  14.990  0.00  0.00    -0.353 OA
ATOM     11  C   UNL d   1      14.137  -8.188  15.984  0.00  0.00     0.210 C 
ENDBRANCH   3  10
BRANCH   5  12
ATOM     12  O   UNL d   1      14.374  -8.406  13.002  0.00  0.00    -0.358 OA
ATOM     13  H   UNL d   1      14.163  -8.718  12.509  0.00  0.00     0.217 HD
ENDBRANCH   5  12
TORSDOF 4
ENDMDL
MODEL 2
REMARK VINA RESULT:     0.000     22.763     24.045
REMARK INTER + INTRA:           1.665
REMARK INTER:                   0.000
REMARK INTRA:                   1.665
REMARK UNBOUND:                 1.665
REMARK  4 active torsions:
REMARK  status: ('A' for Active; 'I' for Inactive)
REMARK    1  A    between atoms: O_1  and  C_6 
REMARK    2  A    between atoms: O_2  and  C_8 
REMARK    3  A    between atoms: C_3  and  C_4 
REMARK    4  A    between atoms: C_4  and  C_10 
ROOT
ATOM      1  C   UNL d   1      -1.120  12.986  14.782  0.00  0.00    -0.052 A 
ATOM      2  C   UNL d   1      -0.945  12.529  13.910  0.00  0.00     0.047 A 
ATOM      3  C   UNL d   1      -0.959  11.530  13.857  0.00  0.00     0.101 A 
ATOM      4  C   UNL d   1      -1.308  12.444  15.602  0.00  0.00     0.010 A 
ATOM      5  C   UNL d   1      -1.148  10.989  14.677  0.00  0.00     0.099 A 
ATOM      6  C   UNL d   1      -1.322  11.446  15.549  0.00  0.00     0.040 A 
ENDROOT
BRANCH   1   7
ATOM      7  C   UNL d   1      -1.106  13.984  14.835  0.00  0.00     0.065 C 
BRANCH   7   8
ATOM      8  C   UNL d   1      -1.913  14.510  14.567  0.00  0.00    -0.032 C 
ATOM      9  C   UNL d   1      -1.909  15.507  14.646  0.00  0.00     0.007 C 
ENDBRANCH   7   8
ENDBRANCH   1   7
BRANCH   3  10
ATOM     10  O   UNL d   1      -0.785  11.073  12.985  0.00  0.00    -0.353 OA
ATOM     11  C   UNL d   1      -0.635  11.615  12.158  0.00  0.00     0.210 C 
ENDBRANCH   3  10
BRANCH   5  12
ATOM     12  O   UNL d   1      -1.161   9.990  14.624  0.00  0.00    -0.358 OA
ATOM     13  H   UNL d   1      -0.890   9.701  14.147  0.00  0.00     0.217 HD
ENDBRANCH   5  12
TORSDOF 4
ENDMDL
MODEL 3
REMARK VINA RESULT:     0.000     23.664     24.138
REMARK INTER + INTRA:           1.665
REMARK INTER:                   0.000
REMARK INTRA:                   1.665
REMARK UNBOUND:                 1.665
REMARK  4 active torsions:
REMARK  status: ('A' for Active; 'I' for Inactive)
REMARK    1  A    between atoms: O_1  and  C_6 
REMARK    2  A    between atoms: O_2  and  C_8 
REMARK    3  A    between atoms: C_3  and  C_4 
REMARK    4  A    between atoms: C_4  and  C_10 
ROOT
ATOM      1  C   UNL d   1      -8.910  -6.524  24.735  0.00  0.00    -0.052 A 
ATOM      2  C   UNL d   1      -8.864  -7.414  24.280  0.00  0.00     0.047 A 
ATOM      3  C   UNL d   1      -8.561  -8.220  24.788  0.00  0.00     0.101 A 
ATOM      4  C   UNL d   1      -8.654  -6.442  25.698  0.00  0.00     0.010 A 
ATOM      5  C   UNL d   1      -8.305  -8.137  25.751  0.00  0.00     0.099 A 
ATOM      6  C   UNL d   1      -8.352  -7.248  26.206  0.00  0.00     0.040 A 
ENDROOT
BRANCH   1   7
ATOM      7  C   UNL d   1      -9.213  -5.718  24.227  0.00  0.00     0.065 C 
BRANCH   7   8
ATOM      8  C   UNL d   1      -8.568  -5.221  23.647  0.00  0.00    -0.032 C 
ATOM      9  C   UNL d   1      -8.863  -4.399  23.160  0.00  0.00     0.007 C 
ENDBRANCH   7   8
ENDBRANCH   1   7
BRANCH   3  10
ATOM     10  O   UNL d   1      -8.515  -9.109  24.333  0.00  0.00    -0.353 OA
ATOM     11  C   UNL d   1      -8.734  -9.185  23.360  0.00  0.00     0.210 C 
ENDBRANCH   3  10
BRANCH   5  12
ATOM     12  O   UNL d   1      -8.002  -8.944  26.259  0.00  0.00    -0.358 OA
ATOM     13  H   UNL d   1      -8.249  -9.499  26.134  0.00  0.00     0.217 HD
ENDBRANCH   5  12
TORSDOF 4
ENDMDL
MODEL 4
REMARK VINA RESULT:     0.000     44.545     45.776
REMARK INTER + INTRA:           1.665
REMARK INTER:                   0.000
REMARK INTRA:                   1.665
REMARK UNBOUND:                 1.665
REMARK  4 active torsions:
REMARK  status: ('A' for Active; 'I' for Inactive)
REMARK    1  A    between atoms: O_1  and  C_6 
REMARK    2  A    between atoms: O_2  and  C_8 
REMARK    3  A    between atoms: C_3  and  C_4 
REMARK    4  A    between atoms: C_4  and  C_10 
ROOT
ATOM      1  C   UNL d   1      13.400 -18.076 -29.891  0.00  0.00    -0.052 A 
ATOM      2  C   UNL d   1      14.058 -18.808 -30.063  0.00  0.00     0.047 A 
ATOM      3  C   UNL d   1      14.962 -18.591 -30.432  0.00  0.00     0.101 A 
ATOM      4  C   UNL d   1      13.645 -17.126 -30.086  0.00  0.00     0.010 A 
ATOM      5  C   UNL d   1      15.208 -17.642 -30.628  0.00  0.00     0.099 A 
ATOM      6  C   UNL d   1      14.549 -16.909 -30.455  0.00  0.00     0.040 A 
ENDROOT
BRANCH   1   7
ATOM      7  C   UNL d   1      12.496 -18.293 -29.522  0.00  0.00     0.065 C 
BRANCH   7   8
ATOM      8  C   UNL d   1      12.377 -18.431 -28.539  0.00  0.00    -0.032 C 
ATOM      9  C   UNL d   1      11.468 -18.621 -28.167  0.00  0.00     0.007 C 
ENDBRANCH   7   8
ENDBRANCH   1   7
BRANCH   3  10
ATOM     10  O   UNL d   1      15.621 -19.323 -30.604  0.00  0.00    -0.353 OA
ATOM     11  C   UNL d   1      15.390 -20.268 -30.372  0.00  0.00     0.210 C 
ENDBRANCH   3  10
BRANCH   5  12
ATOM     12  O   UNL d   1      16.111 -17.424 -30.996  0.00  0.00    -0.358 OA
ATOM     13  H   UNL d   1      16.296 -17.676 -31.532  0.00  0.00     0.217 HD
ENDBRANCH   5  12
TORSDOF 4
ENDMDL
MODEL 5
REMARK VINA RESULT:     0.000     39.358     39.939
REMARK INTER + INTRA:           1.665
REMARK INTER:                   0.000
REMARK INTRA:                   1.665
REMARK UNBOUND:                 1.665
REMARK  4 active torsions:
REMARK  status: ('A' for Active; 'I' for Inactive)
REMARK    1  A    between atoms: O_1  and  C_6 
REMARK    2  A    between atoms: O_2  and  C_8 
REMARK    3  A    between atoms: C_3  and  C_4 
REMARK    4  A    between atoms: C_4  and  C_10 
ROOT
ATOM      1  C   UNL d   1     -17.094  13.911  30.251  0.00  0.00    -0.052 A 
ATOM      2  C   UNL d   1     -17.572  13.042  30.130  0.00  0.00     0.047 A 
ATOM      3  C   UNL d   1     -17.848  12.746  29.215  0.00  0.00     0.101 A 
ATOM      4  C   UNL d   1     -16.892  14.486  29.458  0.00  0.00     0.010 A 
ATOM      5  C   UNL d   1     -17.646  13.321  28.422  0.00  0.00     0.099 A 
ATOM      6  C   UNL d   1     -17.168  14.191  28.544  0.00  0.00     0.040 A 
ENDROOT
BRANCH   1   7
ATOM      7  C   UNL d   1     -16.817  14.207  31.166  0.00  0.00     0.065 C 
BRANCH   7   8
ATOM      8  C   UNL d   1     -17.478  14.655  31.768  0.00  0.00    -0.032 C 
ATOM      9  C   UNL d   1     -17.195  14.975  32.672  0.00  0.00     0.007 C 
ENDBRANCH   7   8
ENDBRANCH   1   7
BRANCH   3  10
ATOM     10  O   UNL d   1     -18.326  11.877  29.094  0.00  0.00    -0.353 OA
ATOM     11  C   UNL d   1     -18.562  11.320  29.890  0.00  0.00     0.210 C 
ENDBRANCH   3  10
BRANCH   5  12
ATOM     12  O   UNL d   1     -17.922  13.026  27.508  0.00  0.00    -0.358 OA
ATOM     13  H   UNL d   1     -17.800  12.448  27.318  0.00  0.00     0.217 HD
ENDBRANCH   5  12
TORSDOF 4
ENDMDL
