MODEL 1
REMARK VINA RESULT:    -8.842      0.000      0.000
REMARK INTER + INTRA:          -8.445
REMARK INTER:                 -11.080
REMARK INTRA:                   2.635
REMARK UNBOUND:                 2.723
REMARK  6 active torsions:
REMARK  status: ('A' for Active; 'I' for Inactive)
REMARK    1  A    between atoms: O_2  and  C_17 
REMARK    2  A    between atoms: O_3  and  C_18 
REMARK    3  A    between atoms: O_4  and  C_16 
REMARK    4  A    between atoms: O_6  and  C_20 
REMARK    5  A    between atoms: O_7  and  C_21 
REMARK    6  A    between atoms: C_8  and  C_9 
ROOT
ATOM      1  O   UNL d   1      19.820 -14.467  15.379  0.00  0.00    -0.309 OA
ATOM      2  O   UNL d   1      17.939 -14.072  17.682  0.00  0.00    -0.287 OA
ATOM      3  C   UNL d   1      20.033 -13.796  16.089  0.00  0.00     0.090 A 
ATOM      4  C   UNL d   1      18.353 -14.875  16.204  0.00  0.00     0.081 A 
ATOM      5  C   UNL d   1      18.980 -15.006  15.436  0.00  0.00     0.095 A 
ATOM      6  C   UNL d   1      19.406 -13.664  16.857  0.00  0.00     0.094 A 
ATOM      7  C   UNL d   1      18.566 -14.204  16.914  0.00  0.00     0.190 A 
ATOM      8  C   UNL d   1      17.474 -15.429  16.277  0.00  0.00     0.085 A 
ATOM      9  C   UNL d   1      18.772 -15.701  14.688  0.00  0.00     0.075 A 
ATOM     10  C   UNL d   1      17.899 -16.267  14.742  0.00  0.00     0.071 A 
ATOM     11  C   UNL d   1      17.246 -16.130  15.541  0.00  0.00     0.074 A 
ENDROOT
BRANCH   3  12
ATOM     12  C   UNL d   1      20.873 -13.257  16.031  0.00  0.00     0.003 A 
ATOM     13  C   UNL d   1      20.889 -12.411  15.498  0.00  0.00     0.054 A 
ATOM     14  C   UNL d   1      21.729 -11.872  15.440  0.00  0.00     0.105 A 
ATOM     15  C   UNL d   1      22.553 -12.178  15.916  0.00  0.00     0.133 A 
ATOM     16  C   UNL d   1      22.537 -13.023  16.450  0.00  0.00     0.105 A 
ATOM     17  C   UNL d   1      21.697 -13.563  16.507  0.00  0.00     0.054 A 
BRANCH  14  18
ATOM     18  O   UNL d   1      21.745 -11.026  14.906  0.00  0.00    -0.353 OA
ATOM     19  C   UNL d   1      20.891 -10.641  14.555  0.00  0.00     0.210 C 
ENDBRANCH  14  18
BRANCH  15  20
ATOM     20  O   UNL d   1      23.393 -11.638  15.859  0.00  0.00    -0.356 OA
ATOM     21  H   UNL d   1      23.541 -11.350  15.330  0.00  0.00     0.218 HD
ENDBRANCH  15  20
BRANCH  16  22
ATOM     22  O   UNL d   1      23.362 -13.329  16.926  0.00  0.00    -0.353 OA
ATOM     23  C   UNL d   1      23.322 -14.121  17.535  0.00  0.00     0.210 C 
ENDBRANCH  16  22
ENDBRANCH   3  12
BRANCH   8  24
ATOM     24  O   UNL d   1      16.855 -15.289  17.049  0.00  0.00    -0.360 OA
ATOM     25  H   UNL d   1      16.258 -15.451  17.001  0.00  0.00     0.217 HD
ENDBRANCH   8  24
BRANCH  10  26
ATOM     26  O   UNL d   1      17.689 -16.937  14.029  0.00  0.00    -0.361 OA
ATOM     27  H   UNL d   1      17.235 -17.350  14.116  0.00  0.00     0.217 HD
ENDBRANCH  10  26
TORSDOF 6
ENDMDL
MODEL 2
REMARK VINA RESULT:    -8.822     48.128     50.273
REMARK INTER + INTRA:          -8.420
REMARK INTER:                 -11.201
REMARK INTRA:                   2.781
REMARK UNBOUND:                 2.723
REMARK  6 active torsions:
REMARK  status: ('A' for Active; 'I' for Inactive)
REMARK    1  A    between atoms: O_2  and  C_17 
REMARK    2  A    between atoms: O_3  and  C_18 
REMARK    3  A    between atoms: O_4  and  C_16 
REMARK    4  A    between atoms: O_6  and  C_20 
REMARK    5  A    between atoms: O_7  and  C_21 
REMARK    6  A    between atoms: C_8  and  C_9 
ROOT
ATOM      1  O   UNL d   1      34.012  31.503  31.610  0.00  0.00    -0.309 OA
ATOM      2  O   UNL d   1      35.952  29.217  31.503  0.00  0.00    -0.287 OA
ATOM      3  C   UNL d   1      34.451  31.179  32.449  0.00  0.00     0.090 A 
ATOM      4  C   UNL d   1      34.867  30.302  30.700  0.00  0.00     0.081 A 
ATOM      5  C   UNL d   1      34.220  31.064  30.736  0.00  0.00     0.095 A 
ATOM      6  C   UNL d   1      35.097  30.417  32.413  0.00  0.00     0.094 A 
ATOM      7  C   UNL d   1      35.305  29.979  31.539  0.00  0.00     0.190 A 
ATOM      8  C   UNL d   1      35.093  29.836  29.797  0.00  0.00     0.085 A 
ATOM      9  C   UNL d   1      33.755  31.413  29.871  0.00  0.00     0.075 A 
ATOM     10  C   UNL d   1      33.967  30.961  28.957  0.00  0.00     0.071 A 
ATOM     11  C   UNL d   1      34.640  30.168  28.919  0.00  0.00     0.074 A 
ENDROOT
BRANCH   3  12
ATOM     12  C   UNL d   1      34.243  31.618  33.323  0.00  0.00     0.003 A 
ATOM     13  C   UNL d   1      34.887  32.272  33.720  0.00  0.00     0.054 A 
ATOM     14  C   UNL d   1      34.679  32.710  34.594  0.00  0.00     0.105 A 
ATOM     15  C   UNL d   1      33.827  32.495  35.072  0.00  0.00     0.133 A 
ATOM     16  C   UNL d   1      33.183  31.841  34.675  0.00  0.00     0.105 A 
ATOM     17  C   UNL d   1      33.391  31.402  33.800  0.00  0.00     0.054 A 
BRANCH  14  18
ATOM     18  O   UNL d   1      35.323  33.364  34.992  0.00  0.00    -0.353 OA
ATOM     19  C   UNL d   1      36.287  33.119  35.090  0.00  0.00     0.210 C 
ENDBRANCH  14  18
BRANCH  15  20
ATOM     20  O   UNL d   1      33.619  32.933  35.946  0.00  0.00    -0.356 OA
ATOM     21  H   UNL d   1      33.042  32.912  36.174  0.00  0.00     0.218 HD
ENDBRANCH  15  20
BRANCH  16  22
ATOM     22  O   UNL d   1      32.331  31.625  35.152  0.00  0.00    -0.353 OA
ATOM     23  C   UNL d   1      31.659  31.019  34.727  0.00  0.00     0.210 C 
ENDBRANCH  16  22
ENDBRANCH   3  12
BRANCH   8  24
ATOM     24  O   UNL d   1      35.741  29.075  29.773  0.00  0.00    -0.360 OA
ATOM     25  H   UNL d   1      36.324  29.170  29.584  0.00  0.00     0.217 HD
ENDBRANCH   8  24
BRANCH  10  26
ATOM     26  O   UNL d   1      33.526  31.288  28.120  0.00  0.00    -0.361 OA
ATOM     27  H   UNL d   1      33.626  30.995  27.583  0.00  0.00     0.217 HD
ENDBRANCH  10  26
TORSDOF 6
ENDMDL
MODEL 3
REMARK VINA RESULT:    -8.817     48.114     50.269
REMARK INTER + INTRA:          -8.413
REMARK INTER:                 -11.204
REMARK INTRA:                   2.791
REMARK UNBOUND:                 2.723
REMARK  6 active torsions:
REMARK  status: ('A' for Active; 'I' for Inactive)
REMARK    1  A    between atoms: O_2  and  C_17 
REMARK    2  A    between atoms: O_3  and  C_18 
REMARK    3  A    between atoms: O_4  and  C_16 
REMARK    4  A    between atoms: O_6  and  C_20 
REMARK    5  A    between atoms: O_7  and  C_21 
REMARK    6  A    between atoms: C_8  and  C_9 
ROOT
ATOM      1  O   UNL d   1      33.984  31.514  31.612  0.00  0.00    -0.309 OA
ATOM      2  O   UNL d   1      35.925  29.232  31.445  0.00  0.00    -0.287 OA
ATOM      3  C   UNL d   1      34.445  31.188  32.437  0.00  0.00     0.090 A 
ATOM      4  C   UNL d   1      34.817  30.319  30.675  0.00  0.00     0.081 A 
ATOM      5  C   UNL d   1      34.170  31.080  30.731  0.00  0.00     0.095 A 
ATOM      6  C   UNL d   1      35.092  30.427  32.382  0.00  0.00     0.094 A 
ATOM      7  C   UNL d   1      35.278  29.993  31.500  0.00  0.00     0.190 A 
ATOM      8  C   UNL d   1      35.021  29.857  29.764  0.00  0.00     0.085 A 
ATOM      9  C   UNL d   1      33.682  31.431  29.880  0.00  0.00     0.075 A 
ATOM     10  C   UNL d   1      33.871  30.983  28.958  0.00  0.00     0.071 A 
ATOM     11  C   UNL d   1      34.545  30.191  28.900  0.00  0.00     0.074 A 
ENDROOT
BRANCH   3  12
ATOM     12  C   UNL d   1      34.259  31.622  33.319  0.00  0.00     0.003 A 
ATOM     13  C   UNL d   1      33.409  31.421  33.806  0.00  0.00     0.054 A 
ATOM     14  C   UNL d   1      33.223  31.855  34.687  0.00  0.00     0.105 A 
ATOM     15  C   UNL d   1      33.886  32.491  35.081  0.00  0.00     0.133 A 
ATOM     16  C   UNL d   1      34.736  32.693  34.594  0.00  0.00     0.105 A 
ATOM     17  C   UNL d   1      34.922  32.259  33.712  0.00  0.00     0.054 A 
BRANCH  14  18
ATOM     18  O   UNL d   1      32.373  31.653  35.175  0.00  0.00    -0.353 OA
ATOM     19  C   UNL d   1      31.672  31.086  34.743  0.00  0.00     0.210 C 
ENDBRANCH  14  18
BRANCH  15  20
ATOM     20  O   UNL d   1      33.700  32.926  35.962  0.00  0.00    -0.356 OA
ATOM     21  H   UNL d   1      34.114  33.316  36.209  0.00  0.00     0.218 HD
ENDBRANCH  15  20
BRANCH  16  22
ATOM     22  O   UNL d   1      35.399  33.330  34.987  0.00  0.00    -0.353 OA
ATOM     23  C   UNL d   1      36.358  33.061  35.076  0.00  0.00     0.210 C 
ENDBRANCH  16  22
ENDBRANCH   3  12
BRANCH   8  24
ATOM     24  O   UNL d   1      35.670  29.097  29.720  0.00  0.00    -0.360 OA
ATOM     25  H   UNL d   1      36.234  29.157  29.969  0.00  0.00     0.217 HD
ENDBRANCH   8  24
BRANCH  10  26
ATOM     26  O   UNL d   1      33.408  31.312  28.135  0.00  0.00    -0.361 OA
ATOM     27  H   UNL d   1      33.339  30.936  27.648  0.00  0.00     0.217 HD
ENDBRANCH  10  26
TORSDOF 6
ENDMDL
MODEL 4
REMARK VINA RESULT:    -8.790      1.096      5.352
REMARK INTER + INTRA:          -8.379
REMARK INTER:                 -11.122
REMARK INTRA:                   2.743
REMARK UNBOUND:                 2.723
REMARK  6 active torsions:
REMARK  status: ('A' for Active; 'I' for Inactive)
REMARK    1  A    between atoms: O_2  and  C_17 
REMARK    2  A    between atoms: O_3  and  C_18 
REMARK    3  A    between atoms: O_4  and  C_16 
REMARK    4  A    between atoms: O_6  and  C_20 
REMARK    5  A    between atoms: O_7  and  C_21 
REMARK    6  A    between atoms: C_8  and  C_9 
ROOT
ATOM      1  O   UNL d   1      20.624 -14.522  16.897  0.00  0.00    -0.309 OA
ATOM      2  O   UNL d   1      21.435 -12.506  14.829  0.00  0.00    -0.287 OA
ATOM      3  C   UNL d   1      19.962 -14.211  16.215  0.00  0.00     0.090 A 
ATOM      4  C   UNL d   1      21.827 -13.489  16.200  0.00  0.00     0.081 A 
ATOM      5  C   UNL d   1      21.557 -14.161  16.890  0.00  0.00     0.095 A 
ATOM      6  C   UNL d   1      20.232 -13.539  15.526  0.00  0.00     0.094 A 
ATOM      7  C   UNL d   1      21.165 -13.178  15.519  0.00  0.00     0.190 A 
ATOM      8  C   UNL d   1      22.794 -13.104  16.180  0.00  0.00     0.085 A 
ATOM      9  C   UNL d   1      22.235 -14.495  17.606  0.00  0.00     0.075 A 
ATOM     10  C   UNL d   1      23.208 -14.123  17.605  0.00  0.00     0.071 A 
ATOM     11  C   UNL d   1      23.490 -13.424  16.887  0.00  0.00     0.074 A 
ENDROOT
BRANCH   3  12
ATOM     12  C   UNL d   1      19.029 -14.572  16.223  0.00  0.00     0.003 A 
ATOM     13  C   UNL d   1      18.373 -14.247  16.903  0.00  0.00     0.054 A 
ATOM     14  C   UNL d   1      17.440 -14.608  16.911  0.00  0.00     0.105 A 
ATOM     15  C   UNL d   1      17.164 -15.294  16.238  0.00  0.00     0.133 A 
ATOM     16  C   UNL d   1      17.821 -15.620  15.558  0.00  0.00     0.105 A 
ATOM     17  C   UNL d   1      18.754 -15.258  15.550  0.00  0.00     0.054 A 
BRANCH  14  18
ATOM     18  O   UNL d   1      16.784 -14.283  17.592  0.00  0.00    -0.353 OA
ATOM     19  C   UNL d   1      17.103 -13.778  18.393  0.00  0.00     0.210 C 
ENDBRANCH  14  18
BRANCH  15  20
ATOM     20  O   UNL d   1      16.232 -15.655  16.246  0.00  0.00    -0.356 OA
ATOM     21  H   UNL d   1      16.102 -16.185  15.951  0.00  0.00     0.218 HD
ENDBRANCH  15  20
BRANCH  16  22
ATOM     22  O   UNL d   1      17.545 -16.306  14.885  0.00  0.00    -0.353 OA
ATOM     23  C   UNL d   1      17.827 -16.211  13.930  0.00  0.00     0.210 C 
ENDBRANCH  16  22
ENDBRANCH   3  12
BRANCH   8  24
ATOM     24  O   UNL d   1      23.054 -12.432  15.486  0.00  0.00    -0.360 OA
ATOM     25  H   UNL d   1      23.066 -11.829  15.628  0.00  0.00     0.217 HD
ENDBRANCH   8  24
BRANCH  10  26
ATOM     26  O   UNL d   1      23.867 -14.437  18.288  0.00  0.00    -0.361 OA
ATOM     27  H   UNL d   1      23.678 -14.567  18.864  0.00  0.00     0.217 HD
ENDBRANCH  10  26
TORSDOF 6
ENDMDL
MODEL 5
REMARK VINA RESULT:    -8.689     49.760     52.458
REMARK INTER + INTRA:          -8.252
REMARK INTER:                 -11.037
REMARK INTRA:                   2.784
REMARK UNBOUND:                 2.723
REMARK  6 active torsions:
REMARK  status: ('A' for Active; 'I' for Inactive)
REMARK    1  A    between atoms: O_2  and  C_17 
REMARK    2  A    between atoms: O_3  and  C_18 
REMARK    3  A    between atoms: O_4  and  C_16 
REMARK    4  A    between atoms: O_6  and  C_20 
REMARK    5  A    between atoms: O_7  and  C_21 
REMARK    6  A    between atoms: C_8  and  C_9 
ROOT
ATOM      1  O   UNL d   1      34.536  32.446  36.066  0.00  0.00    -0.309 OA
ATOM      2  O   UNL d   1      34.845  31.932  39.005  0.00  0.00    -0.287 OA
ATOM      3  C   UNL d   1      33.770  32.077  36.592  0.00  0.00     0.090 A 
ATOM      4  C   UNL d   1      35.508  32.472  37.499  0.00  0.00     0.081 A 
ATOM      5  C   UNL d   1      35.405  32.644  36.519  0.00  0.00     0.095 A 
ATOM      6  C   UNL d   1      33.873  31.906  37.572  0.00  0.00     0.094 A 
ATOM      7  C   UNL d   1      34.742  32.103  38.026  0.00  0.00     0.190 A 
ATOM      8  C   UNL d   1      36.407  32.673  37.985  0.00  0.00     0.085 A 
ATOM      9  C   UNL d   1      36.194  33.028  35.957  0.00  0.00     0.075 A 
ATOM     10  C   UNL d   1      37.102  33.236  36.423  0.00  0.00     0.071 A 
ATOM     11  C   UNL d   1      37.209  33.058  37.443  0.00  0.00     0.074 A 
ENDROOT
BRANCH   3  12
ATOM     12  C   UNL d   1      32.901  31.879  36.139  0.00  0.00     0.003 A 
ATOM     13  C   UNL d   1      32.880  31.286  35.334  0.00  0.00     0.054 A 
ATOM     14  C   UNL d   1      32.011  31.089  34.881  0.00  0.00     0.105 A 
ATOM     15  C   UNL d   1      31.162  31.484  35.232  0.00  0.00     0.133 A 
ATOM     16  C   UNL d   1      31.183  32.078  36.037  0.00  0.00     0.105 A 
ATOM     17  C   UNL d   1      32.052  32.275  36.490  0.00  0.00     0.054 A 
BRANCH  14  18
ATOM     18  O   UNL d   1      31.990  30.495  34.076  0.00  0.00    -0.353 OA
ATOM     19  C   UNL d   1      32.813  30.378  33.520  0.00  0.00     0.210 C 
ENDBRANCH  14  18
BRANCH  15  20
ATOM     20  O   UNL d   1      30.293  31.287  34.779  0.00  0.00    -0.356 OA
ATOM     21  H   UNL d   1      30.015  30.740  34.867  0.00  0.00     0.218 HD
ENDBRANCH  15  20
BRANCH  16  22
ATOM     22  O   UNL d   1      30.334  32.473  36.388  0.00  0.00    -0.353 OA
ATOM     23  C   UNL d   1      30.365  33.152  37.122  0.00  0.00     0.210 C 
ENDBRANCH  16  22
ENDBRANCH   3  12
BRANCH   8  24
ATOM     24  O   UNL d   1      36.499  32.498  38.965  0.00  0.00    -0.360 OA
ATOM     25  H   UNL d   1      36.550  32.972  39.361  0.00  0.00     0.217 HD
ENDBRANCH   8  24
BRANCH  10  26
ATOM     26  O   UNL d   1      37.866  33.605  35.893  0.00  0.00    -0.361 OA
ATOM     27  H   UNL d   1      37.993  33.374  35.331  0.00  0.00     0.217 HD
ENDBRANCH  10  26
TORSDOF 6
ENDMDL
