MODEL 1
REMARK VINA RESULT:    -7.338      0.000      0.000
REMARK INTER + INTRA:           2.172
REMARK INTER:                  -9.928
REMARK INTRA:                  12.100
REMARK UNBOUND:                12.298
REMARK  7 active torsions:
REMARK  status: ('A' for Active; 'I' for Inactive)
REMARK    1  A    between atoms: C_21  and  O_1 
REMARK    2  A    between atoms: C_6  and  C_15 
REMARK    3  A    between atoms: C_15  and  C_23 
REMARK    4  A    between atoms: C_23  and  C_24 
REMARK    5  A    between atoms: C_24  and  C_25 
REMARK    6  A    between atoms: C_25  and  C_26 
REMARK    7  A    between atoms: C_25  and  C_27 
ROOT
ATOM      1  C   UNL d   1      22.913  20.256  36.885  0.00  0.00    -0.036 A 
ATOM      2  C   UNL d   1      22.179  20.739  36.407  0.00  0.00    -0.001 A 
ATOM      3  C   UNL d   1      21.529  21.298  36.923  0.00  0.00    -0.001 A 
ATOM      4  C   UNL d   1      21.614  21.375  37.916  0.00  0.00     0.003 A 
ATOM      5  C   UNL d   1      23.444  19.762  36.206  0.00  0.00     0.001 A 
ATOM      6  C   UNL d   1      22.997  20.333  37.878  0.00  0.00     0.010 A 
ATOM      7  C   UNL d   1      20.946  21.954  38.466  0.00  0.00    -0.017 A 
ATOM      8  C   UNL d   1      22.263  20.538  35.437  0.00  0.00     0.006 A 
ATOM      9  C   UNL d   1      22.348  20.892  38.394  0.00  0.00     0.007 A 
ATOM     10  C   UNL d   1      23.044  19.936  35.313  0.00  0.00     0.006 A 
ATOM     11  C   UNL d   1      20.770  21.795  36.411  0.00  0.00     0.033 A 
ATOM     12  C   UNL d   1      23.647  19.774  37.363  0.00  0.00     0.016 C 
ATOM     13  C   UNL d   1      20.178  22.460  37.975  0.00  0.00    -0.072 A 
ATOM     14  C   UNL d   1      21.058  22.022  39.544  0.00  0.00     0.016 A 
ATOM     15  C   UNL d   1      20.090  22.380  36.941  0.00  0.00    -0.023 A 
ATOM     16  C   UNL d   1      21.682  21.468  38.937  0.00  0.00     0.020 C 
ATOM     17  C   UNL d   1      19.470  23.069  38.528  0.00  0.00     0.066 A 
ATOM     18  C   UNL d   1      20.361  22.625  40.117  0.00  0.00     0.033 A 
ATOM     19  C   UNL d   1      19.562  23.152  39.606  0.00  0.00     0.122 A 
ENDROOT
BRANCH   5  20
ATOM     20  C   UNL d   1      24.243  19.189  36.390  0.00  0.00     0.008 C 
ATOM     21  C   UNL d   1      24.122  18.256  36.728  0.00  0.00     0.014 C 
BRANCH  20  22
ATOM     22  C   UNL d   1      25.163  19.549  36.235  0.00  0.00    -0.026 C 
BRANCH  22  23
ATOM     23  C   UNL d   1      25.831  19.011  35.721  0.00  0.00    -0.025 C 
BRANCH  23  24
ATOM     24  C   UNL d   1      26.691  19.429  35.429  0.00  0.00     0.011 C 
BRANCH  24  25
ATOM     25  C   UNL d   1      26.773  19.812  34.509  0.00  0.00    -0.015 C 
ATOM     26  C   UNL d   1      26.622  19.231  33.710  0.00  0.00     0.010 C 
ATOM     27  C   UNL d   1      27.007  20.777  34.388  0.00  0.00     0.010 C 
ENDBRANCH  24  25
BRANCH  24  28
ATOM     28  C   UNL d   1      27.469  19.464  36.057  0.00  0.00     0.004 C 
ATOM     29  C   UNL d   1      27.816  18.621  36.469  0.00  0.00     0.006 C 
ENDBRANCH  24  28
ENDBRANCH  23  24
ENDBRANCH  22  23
ENDBRANCH  20  22
ENDBRANCH   5  20
BRANCH  19  30
ATOM     30  O   UNL d   1      18.915  23.710  40.124  0.00  0.00    -0.395 OA
ATOM     31  H   UNL d   1      19.041  23.867  40.711  0.00  0.00     0.210 HD
ENDBRANCH  19  30
TORSDOF 7
ENDMDL
MODEL 2
REMARK VINA RESULT:    -7.217      0.801      2.023
REMARK INTER + INTRA:           2.338
REMARK INTER:                  -9.701
REMARK INTRA:                  12.039
REMARK UNBOUND:                12.298
REMARK  7 active torsions:
REMARK  status: ('A' for Active; 'I' for Inactive)
REMARK    1  A    between atoms: C_21  and  O_1 
REMARK    2  A    between atoms: C_6  and  C_15 
REMARK    3  A    between atoms: C_15  and  C_23 
REMARK    4  A    between atoms: C_23  and  C_24 
REMARK    5  A    between atoms: C_24  and  C_25 
REMARK    6  A    between atoms: C_25  and  C_26 
REMARK    7  A    between atoms: C_25  and  C_27 
ROOT
ATOM      1  C   UNL d   1      23.177  20.157  36.754  0.00  0.00    -0.036 A 
ATOM      2  C   UNL d   1      23.058  20.408  37.714  0.00  0.00    -0.001 A 
ATOM      3  C   UNL d   1      22.275  20.966  37.991  0.00  0.00    -0.001 A 
ATOM      4  C   UNL d   1      21.613  21.272  37.308  0.00  0.00     0.003 A 
ATOM      5  C   UNL d   1      24.003  19.608  36.684  0.00  0.00     0.001 A 
ATOM      6  C   UNL d   1      22.515  20.463  36.070  0.00  0.00     0.010 A 
ATOM      7  C   UNL d   1      20.793  21.854  37.581  0.00  0.00    -0.017 A 
ATOM      8  C   UNL d   1      23.810  20.013  38.229  0.00  0.00     0.006 A 
ATOM      9  C   UNL d   1      21.733  21.021  36.347  0.00  0.00     0.007 A 
ATOM     10  C   UNL d   1      24.394  19.519  37.593  0.00  0.00     0.006 A 
ATOM     11  C   UNL d   1      22.164  21.220  38.996  0.00  0.00     0.033 A 
ATOM     12  C   UNL d   1      23.297  19.905  35.793  0.00  0.00     0.016 C 
ATOM     13  C   UNL d   1      20.661  22.120  38.580  0.00  0.00    -0.072 A 
ATOM     14  C   UNL d   1      20.087  22.175  36.822  0.00  0.00     0.016 A 
ATOM     15  C   UNL d   1      21.351  21.801  39.292  0.00  0.00    -0.023 A 
ATOM     16  C   UNL d   1      20.919  21.599  36.622  0.00  0.00     0.020 C 
ATOM     17  C   UNL d   1      19.815  22.725  38.888  0.00  0.00     0.066 A 
ATOM     18  C   UNL d   1      19.233  22.781  37.106  0.00  0.00     0.033 A 
ATOM     19  C   UNL d   1      19.096  23.057  38.146  0.00  0.00     0.122 A 
ENDROOT
BRANCH   5  20
ATOM     20  C   UNL d   1      24.376  19.214  35.843  0.00  0.00     0.008 C 
ATOM     21  C   UNL d   1      24.071  18.313  35.536  0.00  0.00     0.014 C 
BRANCH  20  22
ATOM     22  C   UNL d   1      25.055  19.721  35.312  0.00  0.00    -0.026 C 
BRANCH  22  23
ATOM     23  C   UNL d   1      25.822  19.237  34.889  0.00  0.00    -0.025 C 
BRANCH  23  24
ATOM     24  C   UNL d   1      26.646  19.739  34.628  0.00  0.00     0.011 C 
BRANCH  24  25
ATOM     25  C   UNL d   1      27.525  19.507  35.044  0.00  0.00    -0.015 C 
ATOM     26  C   UNL d   1      28.064  20.214  35.500  0.00  0.00     0.010 C 
ATOM     27  C   UNL d   1      27.865  18.567  35.003  0.00  0.00     0.010 C 
ENDBRANCH  24  25
BRANCH  24  28
ATOM     28  C   UNL d   1      26.591  20.473  33.951  0.00  0.00     0.004 C 
ATOM     29  C   UNL d   1      26.411  20.255  32.991  0.00  0.00     0.006 C 
ENDBRANCH  24  28
ENDBRANCH  23  24
ENDBRANCH  22  23
ENDBRANCH  20  22
ENDBRANCH   5  20
BRANCH  19  30
ATOM     30  O   UNL d   1      18.313  23.615  38.420  0.00  0.00    -0.395 OA
ATOM     31  H   UNL d   1      18.350  23.976  38.923  0.00  0.00     0.210 HD
ENDBRANCH  19  30
TORSDOF 7
ENDMDL
MODEL 3
REMARK VINA RESULT:    -6.847      3.043      5.054
REMARK INTER + INTRA:           2.849
REMARK INTER:                  -9.416
REMARK INTRA:                  12.266
REMARK UNBOUND:                12.298
REMARK  7 active torsions:
REMARK  status: ('A' for Active; 'I' for Inactive)
REMARK    1  A    between atoms: C_21  and  O_1 
REMARK    2  A    between atoms: C_6  and  C_15 
REMARK    3  A    between atoms: C_15  and  C_23 
REMARK    4  A    between atoms: C_23  and  C_24 
REMARK    5  A    between atoms: C_24  and  C_25 
REMARK    6  A    between atoms: C_25  and  C_26 
REMARK    7  A    between atoms: C_25  and  C_27 
ROOT
ATOM      1  C   UNL d   1      22.413  20.636  35.257  0.00  0.00    -0.036 A 
ATOM      2  C   UNL d   1      22.110  20.870  36.181  0.00  0.00    -0.001 A 
ATOM      3  C   UNL d   1      22.658  20.597  36.971  0.00  0.00    -0.001 A 
ATOM      4  C   UNL d   1      23.509  20.090  36.838  0.00  0.00     0.003 A 
ATOM      5  C   UNL d   1      21.741  20.991  34.617  0.00  0.00     0.001 A 
ATOM      6  C   UNL d   1      23.265  20.129  35.124  0.00  0.00     0.010 A 
ATOM      7  C   UNL d   1      24.091  19.799  37.652  0.00  0.00    -0.017 A 
ATOM      8  C   UNL d   1      21.253  21.367  36.103  0.00  0.00     0.006 A 
ATOM      9  C   UNL d   1      23.813  19.856  35.915  0.00  0.00     0.007 A 
ATOM     10  C   UNL d   1      21.025  21.442  35.138  0.00  0.00     0.006 A 
ATOM     11  C   UNL d   1      22.328  20.848  37.928  0.00  0.00     0.033 A 
ATOM     12  C   UNL d   1      22.717  20.402  34.333  0.00  0.00     0.016 C 
ATOM     13  C   UNL d   1      23.781  20.039  38.618  0.00  0.00    -0.072 A 
ATOM     14  C   UNL d   1      25.011  19.250  37.483  0.00  0.00     0.016 A 
ATOM     15  C   UNL d   1      22.894  20.567  38.756  0.00  0.00    -0.023 A 
ATOM     16  C   UNL d   1      24.388  19.569  36.726  0.00  0.00     0.020 C 
ATOM     17  C   UNL d   1      24.370  19.747  39.481  0.00  0.00     0.066 A 
ATOM     18  C   UNL d   1      25.617  18.947  38.331  0.00  0.00     0.033 A 
ATOM     19  C   UNL d   1      25.294  19.197  39.336  0.00  0.00     0.122 A 
ENDROOT
BRANCH   5  20
ATOM     20  C   UNL d   1      21.779  20.908  33.620  0.00  0.00     0.008 C 
ATOM     21  C   UNL d   1      21.513  20.051  33.180  0.00  0.00     0.014 C 
BRANCH  20  22
ATOM     22  C   UNL d   1      22.082  21.683  33.066  0.00  0.00    -0.026 C 
BRANCH  22  23
ATOM     23  C   UNL d   1      21.849  21.724  32.094  0.00  0.00    -0.025 C 
BRANCH  23  24
ATOM     24  C   UNL d   1      22.135  22.508  31.544  0.00  0.00     0.011 C 
BRANCH  24  25
ATOM     25  C   UNL d   1      22.967  22.456  30.993  0.00  0.00    -0.015 C 
ATOM     26  C   UNL d   1      23.709  23.108  31.145  0.00  0.00     0.010 C 
ATOM     27  C   UNL d   1      23.057  21.751  30.289  0.00  0.00     0.010 C 
ENDBRANCH  24  25
BRANCH  24  28
ATOM     28  C   UNL d   1      21.587  23.346  31.545  0.00  0.00     0.004 C 
ATOM     29  C   UNL d   1      20.679  23.350  31.124  0.00  0.00     0.006 C 
ENDBRANCH  24  28
ENDBRANCH  23  24
ENDBRANCH  22  23
ENDBRANCH  20  22
ENDBRANCH   5  20
BRANCH  19  30
ATOM     30  O   UNL d   1      25.844  18.922  40.125  0.00  0.00    -0.395 OA
ATOM     31  H   UNL d   1      26.463  18.933  40.090  0.00  0.00     0.210 HD
ENDBRANCH  19  30
TORSDOF 7
ENDMDL
MODEL 4
REMARK VINA RESULT:    -6.790      2.455      6.487
REMARK INTER + INTRA:           2.928
REMARK INTER:                  -9.181
REMARK INTRA:                  12.108
REMARK UNBOUND:                12.298
REMARK  7 active torsions:
REMARK  status: ('A' for Active; 'I' for Inactive)
REMARK    1  A    between atoms: C_21  and  O_1 
REMARK    2  A    between atoms: C_6  and  C_15 
REMARK    3  A    between atoms: C_15  and  C_23 
REMARK    4  A    between atoms: C_23  and  C_24 
REMARK    5  A    between atoms: C_24  and  C_25 
REMARK    6  A    between atoms: C_25  and  C_26 
REMARK    7  A    between atoms: C_25  and  C_27 
ROOT
ATOM      1  C   UNL d   1      23.351  19.937  36.524  0.00  0.00    -0.036 A 
ATOM      2  C   UNL d   1      23.641  19.997  35.569  0.00  0.00    -0.001 A 
ATOM      3  C   UNL d   1      24.591  19.807  35.321  0.00  0.00    -0.001 A 
ATOM      4  C   UNL d   1      25.252  19.557  36.029  0.00  0.00     0.003 A 
ATOM      5  C   UNL d   1      22.384  20.159  36.563  0.00  0.00     0.001 A 
ATOM      6  C   UNL d   1      24.012  19.686  37.232  0.00  0.00     0.010 A 
ATOM      7  C   UNL d   1      26.245  19.356  35.787  0.00  0.00    -0.017 A 
ATOM      8  C   UNL d   1      22.850  20.256  35.026  0.00  0.00     0.006 A 
ATOM      9  C   UNL d   1      24.962  19.496  36.985  0.00  0.00     0.007 A 
ATOM     10  C   UNL d   1      22.074  20.356  35.639  0.00  0.00     0.006 A 
ATOM     11  C   UNL d   1      24.878  19.874  34.322  0.00  0.00     0.033 A 
ATOM     12  C   UNL d   1      23.062  19.876  37.479  0.00  0.00     0.016 C 
ATOM     13  C   UNL d   1      26.554  19.417  34.794  0.00  0.00    -0.072 A 
ATOM     14  C   UNL d   1      26.943  19.086  36.573  0.00  0.00     0.016 A 
ATOM     15  C   UNL d   1      25.866  19.678  34.056  0.00  0.00    -0.023 A 
ATOM     16  C   UNL d   1      25.947  19.297  36.740  0.00  0.00     0.020 C 
ATOM     17  C   UNL d   1      27.584  19.212  34.518  0.00  0.00     0.066 A 
ATOM     18  C   UNL d   1      27.978  18.877  36.320  0.00  0.00     0.033 A 
ATOM     19  C   UNL d   1      28.300  18.941  35.286  0.00  0.00     0.122 A 
ENDROOT
BRANCH   5  20
ATOM     20  C   UNL d   1      21.819  20.180  37.388  0.00  0.00     0.008 C 
ATOM     21  C   UNL d   1      21.498  19.326  37.796  0.00  0.00     0.014 C 
BRANCH  20  22
ATOM     22  C   UNL d   1      21.575  21.056  37.805  0.00  0.00    -0.026 C 
BRANCH  22  23
ATOM     23  C   UNL d   1      20.683  21.171  38.242  0.00  0.00    -0.025 C 
BRANCH  23  24
ATOM     24  C   UNL d   1      20.295  22.085  38.353  0.00  0.00     0.011 C 
BRANCH  24  25
ATOM     25  C   UNL d   1      19.519  22.370  37.791  0.00  0.00    -0.015 C 
ATOM     26  C   UNL d   1      18.634  21.916  37.893  0.00  0.00     0.010 C 
ATOM     27  C   UNL d   1      19.628  23.110  37.127  0.00  0.00     0.010 C 
ENDBRANCH  24  25
BRANCH  24  28
ATOM     28  C   UNL d   1      20.683  22.715  39.027  0.00  0.00     0.004 C 
ATOM     29  C   UNL d   1      20.624  22.501  40.003  0.00  0.00     0.006 C 
ENDBRANCH  24  28
ENDBRANCH  23  24
ENDBRANCH  22  23
ENDBRANCH  20  22
ENDBRANCH   5  20
BRANCH  19  30
ATOM     30  O   UNL d   1      29.251  18.750  35.042  0.00  0.00    -0.395 OA
ATOM     31  H   UNL d   1      29.522  18.227  35.237  0.00  0.00     0.210 HD
ENDBRANCH  19  30
TORSDOF 7
ENDMDL
MODEL 5
REMARK VINA RESULT:    -6.784      2.595      6.755
REMARK INTER + INTRA:           2.936
REMARK INTER:                  -9.187
REMARK INTRA:                  12.124
REMARK UNBOUND:                12.298
REMARK  7 active torsions:
REMARK  status: ('A' for Active; 'I' for Inactive)
REMARK    1  A    between atoms: C_21  and  O_1 
REMARK    2  A    between atoms: C_6  and  C_15 
REMARK    3  A    between atoms: C_15  and  C_23 
REMARK    4  A    between atoms: C_23  and  C_24 
REMARK    5  A    between atoms: C_24  and  C_25 
REMARK    6  A    between atoms: C_25  and  C_26 
REMARK    7  A    between atoms: C_25  and  C_27 
ROOT
ATOM      1  C   UNL d   1      24.065  19.840  36.279  0.00  0.00    -0.036 A 
ATOM      2  C   UNL d   1      25.027  19.790  36.550  0.00  0.00    -0.001 A 
ATOM      3  C   UNL d   1      25.745  19.829  35.855  0.00  0.00    -0.001 A 
ATOM      4  C   UNL d   1      25.501  19.918  34.889  0.00  0.00     0.003 A 
ATOM      5  C   UNL d   1      23.514  19.785  37.104  0.00  0.00     0.001 A 
ATOM      6  C   UNL d   1      23.822  19.929  35.313  0.00  0.00     0.010 A 
ATOM      7  C   UNL d   1      26.238  19.960  34.154  0.00  0.00    -0.017 A 
ATOM      8  C   UNL d   1      25.061  19.706  37.540  0.00  0.00     0.006 A 
ATOM      9  C   UNL d   1      24.540  19.968  34.618  0.00  0.00     0.007 A 
ATOM     10  C   UNL d   1      24.127  19.702  37.882  0.00  0.00     0.006 A 
ATOM     11  C   UNL d   1      26.742  19.777  36.153  0.00  0.00     0.033 A 
ATOM     12  C   UNL d   1      23.104  19.890  36.008  0.00  0.00     0.016 C 
ATOM     13  C   UNL d   1      27.242  19.909  34.429  0.00  0.00    -0.072 A 
ATOM     14  C   UNL d   1      25.950  20.056  33.112  0.00  0.00     0.016 A 
ATOM     15  C   UNL d   1      27.496  19.817  35.435  0.00  0.00    -0.023 A 
ATOM     16  C   UNL d   1      25.275  20.009  33.891  0.00  0.00     0.020 C 
ATOM     17  C   UNL d   1      28.027  19.951  33.680  0.00  0.00     0.066 A 
ATOM     18  C   UNL d   1      26.717  20.100  32.346  0.00  0.00     0.033 A 
ATOM     19  C   UNL d   1      27.763  20.047  32.633  0.00  0.00     0.122 A 
ENDROOT
BRANCH   5  20
ATOM     20  C   UNL d   1      22.514  19.810  37.144  0.00  0.00     0.008 C 
ATOM     21  C   UNL d   1      21.989  18.969  37.014  0.00  0.00     0.014 C 
BRANCH  20  22
ATOM     22  C   UNL d   1      22.042  20.674  37.315  0.00  0.00    -0.026 C 
BRANCH  22  23
ATOM     23  C   UNL d   1      21.211  20.688  37.872  0.00  0.00    -0.025 C 
BRANCH  23  24
ATOM     24  C   UNL d   1      20.799  21.561  38.132  0.00  0.00     0.011 C 
BRANCH  24  25
ATOM     25  C   UNL d   1      20.018  21.917  37.621  0.00  0.00    -0.015 C 
ATOM     26  C   UNL d   1      20.063  22.826  37.208  0.00  0.00     0.010 C 
ATOM     27  C   UNL d   1      19.190  21.363  37.522  0.00  0.00     0.010 C 
ENDBRANCH  24  25
BRANCH  24  28
ATOM     28  C   UNL d   1      21.169  22.077  38.905  0.00  0.00     0.004 C 
ATOM     29  C   UNL d   1      21.114  21.700  39.830  0.00  0.00     0.006 C 
ENDBRANCH  24  28
ENDBRANCH  23  24
ENDBRANCH  22  23
ENDBRANCH  20  22
ENDBRANCH   5  20
BRANCH  19  30
ATOM     30  O   UNL d   1      28.478  20.086  31.935  0.00  0.00    -0.395 OA
ATOM     31  H   UNL d   1      28.411  19.773  31.404  0.00  0.00     0.210 HD
ENDBRANCH  19  30
TORSDOF 7
ENDMDL
