dataset/results/pdbqt/P02768_5280445.pdbqt
 OpenBabel02082308453D

 16 16  0  0  0  0  0  0  0  0999 V2000
   14.9550   26.6850   21.5670 C   0  0  0  0  0  0  0  0  0  0  0  0
   14.4310   26.3130   22.3330 C   0  0  0  0  0  3  0  0  0  0  0  0
   15.3630   26.0680   20.8940 C   0  0  0  0  0  3  0  0  0  0  0  0
   14.3140   25.3240   22.4250 C   0  0  0  0  0  0  0  0  0  0  0  0
   14.7220   24.7070   21.7530 C   0  0  0  0  0  0  0  0  0  0  0  0
   15.2470   25.0790   20.9870 C   0  0  0  0  0  3  0  0  0  0  0  0
   15.0720   27.6740   21.4740 C   0  0  0  0  0  3  0  0  0  0  0  0
   15.1890   28.2420   22.2880 C   0  0  0  0  0  3  0  0  0  0  0  0
   15.4510   29.2020   22.1940 C   0  0  0  0  0  0  0  0  0  0  0  0
   16.4130   29.4660   22.2540 O   0  0  0  0  0  0  0  0  0  0  0  0
   14.7500   29.8990   22.0410 O   0  0  0  0  0  0  0  0  0  0  0  0
   14.9160   30.4810   21.9070 H   0  0  0  0  0  0  0  0  0  0  0  0
   13.7890   24.9520   23.1910 O   0  0  0  0  0  0  0  0  0  0  0  0
   13.8370   24.3510   23.3370 H   0  0  0  0  0  0  0  0  0  0  0  0
   14.6060   23.7180   21.8450 O   0  0  0  0  0  0  0  0  0  0  0  0
   14.8160   23.4270   22.3510 H   0  0  0  0  0  0  0  0  0  0  0  0
  1  2  1  0  0  0  0
  2  4  2  0  0  0  0
  3  6  1  0  0  0  0
  3  1  2  0  0  0  0
  4 13  1  0  0  0  0
  5 15  1  0  0  0  0
  5  4  1  0  0  0  0
  6  5  2  0  0  0  0
  7  1  1  0  0  0  0
  7  8  2  0  0  0  0
  9 10  2  0  0  0  0
  9  8  1  0  0  0  0
 11  9  1  0  0  0  0
 12 11  1  0  0  0  0
 13 14  1  0  0  0  0
 15 16  1  0  0  0  0
M  END
>  <MODEL>
1

>  <REMARK>
 VINA RESULT:    -6.450      0.000      0.000
 INTER + INTRA:          -7.216
 INTER:                  -8.255
 INTRA:                   1.040
 UNBOUND:                 0.930
  6 active torsions:
  status: ('A' for Active; 'I' for Inactive)
    1  A    between atoms: O_1  and  C_8 
    2  A    between atoms: O_2  and  C_9 
    3  A    between atoms: O_3  and  C_13 
    4  A    between atoms: C_5  and  C_11 
    5  A    between atoms: C_11  and  C_12 
    6  A    between atoms: C_12  and  C_13 

>  <TORSDO>
F 6

$$$$
