dataset/results/pdbqt/P02768_64945.pdbqt
 OpenBabel02082308453D

 31 40  0  0  1  0  0  0  0  0999 V2000
   35.1790   32.4790   35.1380 C   0  0  1  0  0  0  0  0  0  0  0  0
   34.8030   32.4640   36.0640 C   0  0  0  0  0  0  0  0  0  0  0  0
   35.4160   32.4960   36.8530 C   0  0  0  0  0  0  0  0  0  0  0  0
   36.4050   32.5430   36.7160 C   0  0  1  0  0  0  0  0  0  0  0  0
   34.4180   32.4410   34.5000 C   0  0  2  0  0  0  0  0  0  0  0  0
   36.1680   32.5260   35.0010 C   0  0  0  0  0  0  0  0  0  0  0  0
   37.0570   32.5760   37.5290 C   0  0  2  0  0  0  0  0  0  0  0  0
   33.8130   32.4160   35.9910 C   0  0  0  0  0  3  0  0  0  0  0  0
   36.7820   32.5580   35.7900 C   0  0  0  0  0  0  0  0  0  0  0  0
   33.5750   32.4020   35.0250 C   0  0  0  0  0  3  0  0  0  0  0  0
   35.0090   32.4790   37.8130 C   0  0  0  0  0  2  0  0  0  0  0  0
   35.5550   32.4940   34.2110 C   0  0  1  0  0  0  0  0  0  0  0  0
   36.6720   32.5610   38.4970 C   0  0  0  0  0  0  0  0  0  0  0  0
   38.1270   32.6270   37.3550 C   0  0  0  0  0  0  0  0  0  0  0  0
   35.6420   32.5120   38.6400 C   0  0  0  0  0  3  0  0  0  0  0  0
   37.4260   32.5910   36.5990 C   0  0  1  0  0  0  0  0  0  0  0  0
   37.3310   32.5950   39.3590 C   0  0  0  0  0  3  0  0  0  0  0  0
   38.8050   32.6620   38.2010 C   0  0  0  0  0  3  0  0  0  0  0  0
   38.4040   32.6460   39.2090 C   0  0  0  0  0  0  0  0  0  0  0  0
   34.4880   32.4410   33.5020 C   0  0  2  0  0  0  0  0  0  0  0  0
   34.4900   33.3070   33.0020 C   0  0  0  0  0  1  0  0  0  0  0  0
   34.5560   31.5760   33.0050 C   0  0  0  0  0  3  0  0  0  0  0  0
   34.1070   31.4730   32.1170 C   0  0  0  0  0  3  0  0  0  0  0  0
   34.2310   30.6330   31.5890 C   0  0  1  0  0  3  0  0  0  0  0  0
   34.3370   30.6780   30.5960 C   0  0  0  0  0  0  0  0  0  0  0  0
   33.6110   31.0710   30.0330 C   0  0  0  0  0  1  0  0  0  0  0  0
   35.1700   30.3280   30.1650 C   0  0  0  0  0  2  0  0  0  0  0  0
   34.2500   29.7480   32.0550 C   0  0  0  0  0  3  0  0  0  0  0  0
   33.4020   29.3530   32.4110 C   0  0  0  0  0  2  0  0  0  0  0  0
   39.0210   32.6780   39.9970 O   0  0  0  0  0  0  0  0  0  0  0  0
   39.4900   33.0840   40.0070 H   0  0  0  0  0  0  0  0  0  0  0  0
  1  6  1  6  0  0  0
  1  2  1  0  0  0  0
  2  3  2  0  0  0  0
  3 11  1  0  0  0  0
  4  9  1  1  0  0  0
  4  3  1  0  0  0  0
  4  7  1  0  0  0  0
  5 10  1  1  0  0  0
  5  1  1  0  0  0  0
  6  9  2  0  0  0  0
  7 14  1  6  0  0  0
  7 13  1  0  0  0  0
  8  2  1  0  0  0  0
 10  8  2  0  0  0  0
 11 15  1  0  0  0  0
 12  5  1  0  0  0  0
 12  6  1  6  0  0  0
 12  1  1  0  0  0  0
 13 15  2  0  0  0  0
 13 17  1  0  0  0  0
 14 18  2  3  0  0  0
 16  9  1  1  0  0  0
 16  4  1  0  0  0  0
 16 14  1  0  0  0  0
 16  7  1  0  0  0  0
 18 19  1  0  0  0  0
 19 17  2  0  0  0  0
 19 30  1  0  0  0  0
 20 21  1  6  0  0  0
 20 12  1  0  0  0  0
 20  5  1  0  0  0  0
 22 20  1  0  0  0  0
 23 22  2  0  0  0  0
 24 28  1  1  0  0  0
 24 23  1  0  0  0  0
 25 24  1  0  0  0  0
 26 25  1  0  0  0  0
 27 25  2  0  0  0  0
 28 29  2  0  0  0  0
 30 31  1  0  0  0  0
M  END
>  <MODEL>
1

>  <REMARK>
 VINA RESULT:   -10.946      0.000      0.000
 INTER + INTRA:          -2.787
 INTER:                 -15.179
 INTRA:                  12.392
 UNBOUND:                12.318
  7 active torsions:
  status: ('A' for Active; 'I' for Inactive)
    1  A    between atoms: C_22  and  O_1 
    2  A    between atoms: C_6  and  C_13 
    3  A    between atoms: C_13  and  C_20 
    4  A    between atoms: C_20  and  C_24 
    5  A    between atoms: C_25  and  C_24 
    6  A    between atoms: C_25  and  C_26 
    7  A    between atoms: C_25  and  C_27 

>  <TORSDO>
F 7

$$$$
