dataset/results/pdbqt/P02768_689043.pdbqt
 OpenBabel02082308453D

 27 29  0  0  0  0  0  0  0  0999 V2000
   19.8200  -14.4670   15.3790 O   0  0  0  0  0  0  0  0  0  0  0  0
   17.9390  -14.0720   17.6820 O   0  0  0  0  0  0  0  0  0  0  0  0
   20.0330  -13.7960   16.0890 C   0  0  0  0  0  0  0  0  0  0  0  0
   18.3530  -14.8750   16.2040 C   0  0  0  0  0  0  0  0  0  0  0  0
   18.9800  -15.0060   15.4360 C   0  0  0  0  0  0  0  0  0  0  0  0
   19.4060  -13.6640   16.8570 C   0  0  0  0  0  3  0  0  0  0  0  0
   18.5660  -14.2040   16.9140 C   0  0  0  0  0  0  0  0  0  0  0  0
   17.4740  -15.4290   16.2770 C   0  0  0  0  0  0  0  0  0  0  0  0
   18.7720  -15.7010   14.6880 C   0  0  0  0  0  3  0  0  0  0  0  0
   17.8990  -16.2670   14.7420 C   0  0  0  0  0  0  0  0  0  0  0  0
   17.2460  -16.1300   15.5410 C   0  0  0  0  0  3  0  0  0  0  0  0
   20.8730  -13.2570   16.0310 C   0  0  0  0  0  0  0  0  0  0  0  0
   20.8890  -12.4110   15.4980 C   0  0  0  0  0  3  0  0  0  0  0  0
   21.7290  -11.8720   15.4400 C   0  0  0  0  0  0  0  0  0  0  0  0
   22.5530  -12.1780   15.9160 C   0  0  0  0  0  0  0  0  0  0  0  0
   22.5370  -13.0230   16.4500 C   0  0  0  0  0  0  0  0  0  0  0  0
   21.6970  -13.5630   16.5070 C   0  0  0  0  0  3  0  0  0  0  0  0
   21.7450  -11.0260   14.9060 O   0  0  0  0  0  0  0  0  0  0  0  0
   20.8910  -10.6410   14.5550 C   0  0  0  0  0  1  0  0  0  0  0  0
   23.3930  -11.6380   15.8590 O   0  0  0  0  0  0  0  0  0  0  0  0
   23.5410  -11.3500   15.3300 H   0  0  0  0  0  0  0  0  0  0  0  0
   23.3620  -13.3290   16.9260 O   0  0  0  0  0  0  0  0  0  0  0  0
   23.3220  -14.1210   17.5350 C   0  0  0  0  0  1  0  0  0  0  0  0
   16.8550  -15.2890   17.0490 O   0  0  0  0  0  0  0  0  0  0  0  0
   16.2580  -15.4510   17.0010 H   0  0  0  0  0  0  0  0  0  0  0  0
   17.6890  -16.9370   14.0290 O   0  0  0  0  0  0  0  0  0  0  0  0
   17.2350  -17.3500   14.1160 H   0  0  0  0  0  0  0  0  0  0  0  0
  1  5  1  0  0  0  0
  1  3  1  0  0  0  0
  3  6  2  0  0  0  0
  4  8  1  0  0  0  0
  4  7  1  0  0  0  0
  5  4  2  0  0  0  0
  6  7  1  0  0  0  0
  7  2  2  0  0  0  0
  8 24  1  0  0  0  0
  9 10  2  0  0  0  0
  9  5  1  0  0  0  0
 10 11  1  0  0  0  0
 11  8  2  0  0  0  0
 12  3  1  0  0  0  0
 12 17  1  0  0  0  0
 13 12  2  0  0  0  0
 14 13  1  0  0  0  0
 14 15  2  0  0  0  0
 15 16  1  0  0  0  0
 16 17  2  0  0  0  0
 16 22  1  0  0  0  0
 18 14  1  0  0  0  0
 19 18  1  0  0  0  0
 20 15  1  0  0  0  0
 21 20  1  0  0  0  0
 22 23  1  0  0  0  0
 25 24  1  0  0  0  0
 26 27  1  0  0  0  0
 26 10  1  0  0  0  0
M  END
>  <MODEL>
1

>  <REMARK>
 VINA RESULT:    -8.842      0.000      0.000
 INTER + INTRA:          -8.445
 INTER:                 -11.080
 INTRA:                   2.635
 UNBOUND:                 2.723
  6 active torsions:
  status: ('A' for Active; 'I' for Inactive)
    1  A    between atoms: O_2  and  C_17 
    2  A    between atoms: O_3  and  C_18 
    3  A    between atoms: O_4  and  C_16 
    4  A    between atoms: O_6  and  C_20 
    5  A    between atoms: O_7  and  C_21 
    6  A    between atoms: C_8  and  C_9 

>  <TORSDO>
F 6

$$$$
