dataset/results/pdbqt/P02768_5280459.pdbqt
 OpenBabel02082308453D

 39 42  0  0  1  0  0  0  0  0999 V2000
   30.8820   29.7710   16.0930 O   0  0  0  0  0  0  0  0  0  0  0  0
   31.6050   31.0890   18.6890 O   0  0  0  0  0  0  0  0  0  0  0  0
   31.6650   31.0510   16.9580 C   0  0  0  0  0  0  0  0  0  0  0  0
   31.4240   30.6120   16.0930 C   0  0  0  0  0  0  0  0  0  0  0  0
   31.3640   30.6490   17.8230 C   0  0  0  0  0  0  0  0  0  0  0  0
   30.8230   29.8090   17.8230 C   0  0  0  0  0  0  0  0  0  0  0  0
   30.5820   29.3690   16.9580 C   0  0  0  0  0  0  0  0  0  0  0  0
   30.5180   29.4020   18.7320 C   0  0  0  0  0  0  0  0  0  0  0  0
   30.0190   28.4930   16.9410 C   0  0  0  0  0  3  0  0  0  0  0  0
   29.9530   28.5260   18.7400 C   0  0  0  0  0  3  0  0  0  0  0  0
   29.7020   28.0680   17.8380 C   0  0  0  0  0  0  0  0  0  0  0  0
   32.2060   31.8920   16.9590 O   0  0  0  0  0  0  0  0  0  0  0  0
   31.7920   32.7530   17.2540 C   0  0  2  0  0  3  0  0  0  0  0  0
   30.8330   32.9440   17.0440 O   0  0  0  0  0  0  0  0  0  0  0  0
   30.4190   33.8050   17.3390 C   0  0  0  0  0  0  0  0  0  0  0  0
   30.9640   34.4750   17.8440 C   0  0  0  0  0  0  0  0  0  0  0  0
   29.4600   33.9970   17.1300 C   0  0  0  0  0  1  0  0  0  0  0  0
   31.9230   34.2840   18.0530 C   0  0  0  0  0  0  0  0  0  0  0  0
   32.3370   33.4230   17.7580 C   0  0  0  0  0  0  0  0  0  0  0  0
   30.5500   35.3360   18.1390 O   0  0  0  0  0  0  0  0  0  0  0  0
   30.9090   35.8020   18.3350 H   0  0  0  0  0  0  0  0  0  0  0  0
   32.4680   34.9540   18.5580 O   0  0  0  0  0  0  0  0  0  0  0  0
   32.2030   35.2980   19.0010 H   0  0  0  0  0  0  0  0  0  0  0  0
   33.2960   33.2320   17.9670 O   0  0  0  0  0  0  0  0  0  0  0  0
   33.6880   33.0800   17.5120 H   0  0  0  0  0  0  0  0  0  0  0  0
   31.7240   31.0140   15.2280 C   0  0  0  0  0  0  0  0  0  0  0  0
   32.6940   31.0120   14.9860 C   0  0  0  0  0  3  0  0  0  0  0  0
   32.9940   31.4130   14.1210 C   0  0  0  0  0  0  0  0  0  0  0  0
   32.3240   31.8170   13.4970 C   0  0  0  0  0  0  0  0  0  0  0  0
   31.3540   31.8190   13.7390 C   0  0  0  0  0  3  0  0  0  0  0  0
   31.0540   31.4170   14.6050 C   0  0  0  0  0  3  0  0  0  0  0  0
   33.9650   31.4110   13.8780 O   0  0  0  0  0  0  0  0  0  0  0  0
   34.1550   31.6920   13.3590 H   0  0  0  0  0  0  0  0  0  0  0  0
   32.6250   32.2190   12.6320 O   0  0  0  0  0  0  0  0  0  0  0  0
   32.3920   32.7620   12.4450 H   0  0  0  0  0  0  0  0  0  0  0  0
   30.7640   29.8500   19.5920 O   0  0  0  0  0  0  0  0  0  0  0  0
   30.8650   29.5090   20.1010 H   0  0  0  0  0  0  0  0  0  0  0  0
   29.1610   27.2270   17.8340 O   0  0  0  0  0  0  0  0  0  0  0  0
   29.2650   26.7900   18.2610 H   0  0  0  0  0  0  0  0  0  0  0  0
  1  4  1  0  0  0  0
  1  7  1  0  0  0  0
  3 12  1  0  0  0  0
  3  5  1  0  0  0  0
  4  3  2  0  0  0  0
  5  2  2  0  0  0  0
  6  5  1  0  0  0  0
  6  8  1  0  0  0  0
  7  6  2  0  0  0  0
  8 10  2  0  0  0  0
  8 36  1  0  0  0  0
  9  7  1  0  0  0  0
  9 11  2  0  0  0  0
 11 10  1  0  0  0  0
 13 12  1  6  0  0  0
 13 19  1  0  0  0  0
 14 13  1  0  0  0  0
 14 15  1  0  0  0  0
 15 16  2  0  0  0  0
 16 18  1  0  0  0  0
 16 20  1  0  0  0  0
 17 15  1  0  0  0  0
 18 22  1  0  0  0  0
 19 24  1  0  0  0  0
 19 18  2  0  0  0  0
 20 21  1  0  0  0  0
 22 23  1  0  0  0  0
 25 24  1  0  0  0  0
 26  4  1  0  0  0  0
 27 26  1  0  0  0  0
 28 27  2  0  0  0  0
 29 30  2  0  0  0  0
 29 28  1  0  0  0  0
 30 31  1  0  0  0  0
 31 26  2  0  0  0  0
 32 28  1  0  0  0  0
 33 32  1  0  0  0  0
 34 29  1  0  0  0  0
 35 34  1  0  0  0  0
 36 37  1  0  0  0  0
 38 11  1  0  0  0  0
 38 39  1  0  0  0  0
M  END
>  <MODEL>
1

>  <REMARK>
 VINA RESULT:    -9.639      0.000      0.000
 INTER + INTRA:          -0.832
 INTER:                 -13.286
 INTRA:                  12.454
 UNBOUND:                12.470
  10 active torsions:
  status: ('A' for Active; 'I' for Inactive)
    1  A    between atoms: C_16  and  O_2 
    2  A    between atoms: O_2  and  C_18 
    3  A    between atoms: C_12  and  O_3 
    4  A    between atoms: C_13  and  O_4 
    5  A    between atoms: C_14  and  O_5 
    6  A    between atoms: O_8  and  C_24 
    7  A    between atoms: O_9  and  C_29 
    8  A    between atoms: O_10  and  C_30 
    9  A    between atoms: O_11  and  C_32 
   10  A    between atoms: C_19  and  C_23 

>  <TORSDO>
F 10

$$$$
