dataset/results/pdbqt/P02768_5317587.pdbqt
 OpenBabel02082308453D

 16 16  0  0  0  0  0  0  0  0999 V2000
   32.0000  -16.7510   23.4770 C   0  0  0  0  0  0  0  0  0  0  0  0
   32.9690  -17.8780   22.1400 C   0  0  0  0  0  0  0  0  0  0  0  0
   32.1540  -17.3670   21.8660 C   0  0  0  0  0  0  0  0  0  0  0  0
   33.2990  -17.8260   23.0820 C   0  0  0  0  0  0  0  0  0  0  0  0
   31.6700  -16.8030   22.5350 C   0  0  0  0  0  3  0  0  0  0  0  0
   32.8140  -17.2620   23.7510 C   0  0  0  0  0  3  0  0  0  0  0  0
   31.5150  -16.1870   24.1460 C   0  0  0  0  0  0  0  0  0  0  0  0
   31.7450  -15.2180   24.2440 O   0  0  0  0  0  0  0  0  0  0  0  0
   30.8010  -16.5910   24.7170 O   0  0  0  0  0  0  0  0  0  0  0  0
   30.7270  -17.2060   24.7320 H   0  0  0  0  0  0  0  0  0  0  0  0
   31.8240  -17.4200   20.9240 O   0  0  0  0  0  0  0  0  0  0  0  0
   32.1150  -17.7820   20.5130 H   0  0  0  0  0  0  0  0  0  0  0  0
   34.1130  -18.3370   23.3560 O   0  0  0  0  0  0  0  0  0  0  0  0
   34.6770  -18.1170   23.2230 H   0  0  0  0  0  0  0  0  0  0  0  0
   33.4530  -18.4420   21.4710 O   0  0  0  0  0  0  0  0  0  0  0  0
   33.8300  -18.1770   21.0570 H   0  0  0  0  0  0  0  0  0  0  0  0
  1  6  1  0  0  0  0
  1  7  1  0  0  0  0
  2  4  1  0  0  0  0
  3  2  2  0  0  0  0
  3  5  1  0  0  0  0
  4 13  1  0  0  0  0
  4  6  2  0  0  0  0
  5  1  2  0  0  0  0
  7  8  2  0  0  0  0
  7  9  1  0  0  0  0
  9 10  1  0  0  0  0
 11  3  1  0  0  0  0
 12 11  1  0  0  0  0
 14 13  1  0  0  0  0
 15  2  1  0  0  0  0
 16 15  1  0  0  0  0
M  END
>  <MODEL>
1

>  <REMARK>
 VINA RESULT:    -6.288      0.000      0.000
 INTER + INTRA:          -7.150
 INTER:                  -7.383
 INTRA:                   0.233
 UNBOUND:                 0.241
  5 active torsions:
  status: ('A' for Active; 'I' for Inactive)
    1  A    between atoms: O_1  and  C_7 
    2  A    between atoms: O_2  and  C_8 
    3  A    between atoms: O_3  and  C_9 
    4  A    between atoms: O_4  and  C_12 
    5  A    between atoms: C_6  and  C_12 

>  <TORSDO>
F 5

$$$$
