dataset/results/pdbqt/P03372_5280794.pdbqt
 OpenBabel02082308453D

 12 12  0  0  0  0  0  0  0  0999 V2000
   25.5090   18.9790   37.5370 C   0  0  0  0  0  0  0  0  0  0  0  0
   25.4540   19.1080   38.5280 C   0  0  0  0  0  0  0  0  0  0  0  0
   24.8450   19.4250   36.9380 C   0  0  0  0  0  3  0  0  0  0  0  0
   24.0710   20.1290   38.3180 C   0  0  0  0  0  0  0  0  0  0  0  0
   24.7360   19.6830   38.9180 C   0  0  0  0  0  3  0  0  0  0  0  0
   24.1260   20.0000   37.3280 C   0  0  0  0  0  3  0  0  0  0  0  0
   23.3530   20.7050   38.7080 C   0  0  0  0  0  1  0  0  0  0  0  0
   26.2280   18.4030   37.1470 C   0  0  0  0  0  0  0  0  0  0  0  0
   27.1000   18.8090   36.8730 C   0  0  0  0  0  1  0  0  0  0  0  0
   26.0750   17.4220   37.0310 C   0  0  0  0  0  2  0  0  0  0  0  0
   26.1180   18.6610   39.1270 O   0  0  0  0  0  0  0  0  0  0  0  0
   26.4430   18.9970   39.5350 H   0  0  0  0  0  0  0  0  0  0  0  0
  1  2  1  0  0  0  0
  2  5  2  0  0  0  0
  2 11  1  0  0  0  0
  3  6  1  0  0  0  0
  3  1  2  0  0  0  0
  4  7  1  0  0  0  0
  4  5  1  0  0  0  0
  6  4  2  0  0  0  0
  8  1  1  0  0  0  0
  9  8  1  0  0  0  0
 10  8  2  0  0  0  0
 11 12  1  0  0  0  0
M  END
>  <MODEL>
1

>  <REMARK>
 VINA RESULT:    -3.703      0.000      0.000
 INTER + INTRA:          -1.041
 INTER:                  -4.007
 INTRA:                   2.966
 UNBOUND:                 2.987
  2 active torsions:
  status: ('A' for Active; 'I' for Inactive)
    1  A    between atoms: O_1  and  C_6 
    2  A    between atoms: C_2  and  C_3 

>  <TORSDO>
F 2

$$$$
