dataset/results/pdbqt/P08183_12313020.pdbqt
 OpenBabel02082308453D

 15 19  0  0  1  0  0  0  0  0999 V2000
  -21.2950  -15.2740   -4.5770 C   0  0  0  0  0  0  0  0  0  0  0  0
  -20.5360  -15.0870   -3.9530 C   0  0  0  0  0  0  0  0  0  0  0  0
  -21.3750  -16.1710   -5.0120 C   0  0  1  0  0  0  0  0  0  0  0  0
  -21.2160  -14.3760   -4.1420 C   0  0  0  0  0  0  0  0  0  0  0  0
  -21.9950  -14.5240   -4.7640 C   0  0  0  0  0  1  0  0  0  0  0  0
  -22.1600  -16.3810   -5.6640 C   0  0  0  0  0  0  0  0  0  0  0  0
  -22.7870  -14.7130   -5.4130 C   0  0  0  0  0  2  0  0  0  0  0  0
  -20.6970  -16.8810   -4.8230 C   0  0  1  0  0  3  0  0  0  0  0  0
  -19.8580  -15.7960   -3.7640 C   0  0  0  0  0  0  0  0  0  0  0  0
  -22.8710  -15.6460   -5.8660 C   0  0  0  0  0  3  0  0  0  0  0  0
  -21.4560  -17.0680   -5.4470 C   0  0  2  0  0  3  0  0  0  0  0  0
  -22.3310  -13.5950   -4.6150 C   0  0  2  0  0  3  0  0  0  0  0  0
  -21.7620  -13.6990   -4.2500 C   0  0  0  0  0  3  0  0  0  0  0  0
  -19.9380  -16.6930   -4.1990 C   0  0  0  0  0  3  0  0  0  0  0  0
  -19.0990  -15.6090   -3.1410 C   0  0  0  0  0  1  0  0  0  0  0  0
  1  4  1  0  0  0  0
  1  2  2  0  0  0  0
  2  9  1  0  0  0  0
  3  6  1  6  0  0  0
  3  8  1  0  0  0  0
  3  1  1  0  0  0  0
  4  2  1  0  0  0  0
  7 12  1  0  0  0  0
  8 14  1  6  0  0  0
  9 15  1  0  0  0  0
 10  6  2  3  0  0  0
 10  7  1  0  0  0  0
 11  6  1  1  0  0  0
 11  3  1  0  0  0  0
 11  8  1  0  0  0  0
 12  5  1  1  0  0  0
 12 13  1  0  0  0  0
 13  4  2  0  0  0  0
 14  9  2  0  0  0  0
M  END
>  <MODEL>
1

>  <REMARK>
 VINA RESULT:     0.000      0.000      0.000
 INTER + INTRA:           0.000
 INTER:                   0.000
 INTRA:                   0.000
 UNBOUND:                 0.000
  0 active torsions:
  status: ('A' for Active; 'I' for Inactive)

>  <TORSDO>
F 0

$$$$
