dataset/results/pdbqt/P08183_6448.pdbqt
 OpenBabel02082308453D

 17 16  0  0  0  0  0  0  0  0999 V2000
   -4.2390   16.2780  -10.1380 C   0  0  0  0  0  0  0  0  0  0  0  0
   -5.1530   16.6410  -10.3180 C   0  0  0  0  0  0  0  0  0  0  0  0
   -5.9500   16.0390  -10.2620 C   0  0  0  0  0  0  0  0  0  0  0  0
   -4.1210   15.3140   -9.9010 C   0  0  0  0  0  0  0  0  0  0  0  0
   -5.8320   15.0750  -10.0250 C   0  0  0  0  0  3  0  0  0  0  0  0
   -4.9180   14.7120   -9.8440 C   0  0  0  0  0  3  0  0  0  0  0  0
   -3.3990   16.8920  -10.1930 C   0  0  0  0  0 15  0  0  0  0  0  0
   -5.2920   17.6430  -10.5670 C   0  0  0  0  0  2  0  0  0  0  0  0
   -3.5140   17.8980  -10.4400 C   0  0  0  0  0  1  0  0  0  0  0  0
   -3.2070   14.9510   -9.7210 C   0  0  0  0  0  1  0  0  0  0  0  0
   -4.4670   18.2760  -10.6280 C   0  0  0  0  0  0  0  0  0  0  0  0
   -4.5880   19.2390  -10.8650 C   0  0  0  0  0  2  0  0  0  0  0  0
   -6.8640   16.4020  -10.4420 C   0  0  0  0  0  0  0  0  0  0  0  0
   -7.4090   16.7780   -9.6930 C   0  0  0  0  0  2  0  0  0  0  0  0
   -7.2330   16.3870  -11.3710 C   0  0  0  0  0  1  0  0  0  0  0  0
   -3.3240   15.9160   -9.9580 O   0  0  0  0  0  0  0  0  0  0  0  0
   -2.8390   16.3000   -9.9240 H   0  0  0  0  0  0  0  0  0  0  0  0
  1 16  1  0  0  0  0
  1  4  1  0  0  0  0
  2  3  1  0  0  0  0
  2  1  2  0  0  0  0
  3  5  2  0  0  0  0
  4  6  2  0  0  0  0
  4 10  1  0  0  0  0
  5  6  1  0  0  0  0
  8  2  1  0  0  0  0
 11  8  1  0  0  0  0
 11  9  1  0  0  0  0
 12 11  2  0  0  0  0
 13  3  1  0  0  0  0
 13 14  2  0  0  0  0
 15 13  1  0  0  0  0
 16 17  1  0  0  0  0
M  END
>  <MODEL>
1

>  <REMARK>
 VINA RESULT:     0.000      0.000      0.000
 INTER + INTRA:           3.661
 INTER:                   0.000
 INTRA:                   3.661
 UNBOUND:                 3.661
  2 active torsions:
  status: ('A' for Active; 'I' for Inactive)
    1  A    between atoms: O_1  and  C_2 
    2  A    between atoms: C_4  and  C_9 

>  <TORSDO>
F 2

$$$$
