dataset/results/pdbqt/P08172_6989.pdbqt
 OpenBabel02082308453D

  8  8  0  0  0  0  0  0  0  0999 V2000
    3.1240   20.6660   -9.6220 C   0  0  0  0  0  0  0  0  0  0  0  0
    2.7520   20.1700  -10.4070 C   0  0  0  0  0  3  0  0  0  0  0  0
    3.8170   20.2380   -9.0430 C   0  0  0  0  0  3  0  0  0  0  0  0
    3.0740   19.2460  -10.6130 C   0  0  0  0  0  3  0  0  0  0  0  0
    4.1380   19.3130   -9.2480 C   0  0  0  0  0  3  0  0  0  0  0  0
    3.7670   18.8180  -10.0330 C   0  0  0  0  0  3  0  0  0  0  0  0
    2.8020   21.5900   -9.4170 C   0  0  0  0  0  3  0  0  0  0  0  0
    2.0170   21.7240   -8.8120 O   0  0  0  0  0  0  0  0  0  0  0  0
  1  7  1  0  0  0  0
  1  3  1  0  0  0  0
  2  1  2  0  0  0  0
  4  2  1  0  0  0  0
  4  6  2  0  0  0  0
  5  3  2  0  0  0  0
  6  5  1  0  0  0  0
  7  8  2  0  0  0  0
M  END
>  <MODEL>
1

>  <REMARK>
 VINA RESULT:     0.000      0.000      0.000
 INTER + INTRA:           0.141
 INTER:                   0.000
 INTRA:                   0.141
 UNBOUND:                 0.141
  1 active torsions:
  status: ('A' for Active; 'I' for Inactive)
    1  A    between atoms: C_2  and  C_8 

>  <TORSDO>
F 1

$$$$
