dataset/results/pdbqt/P08183_3314.pdbqt
 OpenBabel02082308453D

 10 10  0  0  0  0  0  0  0  0999 V2000
  -22.2170    0.3020    6.0680 C   0  0  0  0  0  0  0  0  0  0  0  0
  -22.3710   -0.0710    6.9830 C   0  0  0  0  0  3  0  0  0  0  0  0
  -21.8790   -0.2910    5.3370 C   0  0  0  0  0  3  0  0  0  0  0  0
  -22.1860   -1.0370    7.1670 C   0  0  0  0  0  3  0  0  0  0  0  0
  -21.8480   -1.6290    6.4360 C   0  0  0  0  0  0  0  0  0  0  0  0
  -21.6940   -1.2560    5.5210 C   0  0  0  0  0  3  0  0  0  0  0  0
  -21.6630   -2.5940    6.6200 C   0  0  0  0  0  1  0  0  0  0  0  0
  -22.4020    1.2670    5.8840 C   0  0  0  0  0  0  0  0  0  0  0  0
  -21.6800    1.9470    6.0090 C   0  0  0  0  0  2  0  0  0  0  0  0
  -23.3090    1.5530    5.5750 C   0  0  0  0  0  1  0  0  0  0  0  0
  1  2  1  0  0  0  0
  2  4  2  0  0  0  0
  3  6  1  0  0  0  0
  3  1  2  0  0  0  0
  5  7  1  0  0  0  0
  5  4  1  0  0  0  0
  6  5  2  0  0  0  0
  8  9  2  0  0  0  0
  8  1  1  0  0  0  0
 10  8  1  0  0  0  0
M  END
>  <MODEL>
1

>  <REMARK>
 VINA RESULT:     0.000      0.000      0.000
 INTER + INTRA:           0.754
 INTER:                   0.000
 INTRA:                   0.754
 UNBOUND:                 0.754
  1 active torsions:
  status: ('A' for Active; 'I' for Inactive)
    1  A    between atoms: C_1  and  C_2 

>  <TORSDO>
F 1

$$$$
