dataset/results/pdbqt/P08185_64945.pdbqt
 OpenBabel02082308453D

 31 40  0  0  1  0  0  0  0  0999 V2000
   -4.4460   -6.5070   34.7610 C   0  0  1  0  0  0  0  0  0  0  0  0
   -4.7020   -6.1490   35.6590 C   0  0  0  0  0  0  0  0  0  0  0  0
   -5.6130   -5.7620   35.8030 C   0  0  0  0  0  0  0  0  0  0  0  0
   -6.2680   -5.7330   35.0480 C   0  0  1  0  0  0  0  0  0  0  0  0
   -3.5130   -6.8430   34.8220 C   0  0  1  0  0  0  0  0  0  0  0  0
   -5.1020   -6.4780   34.0070 C   0  0  1  0  0  3  0  0  0  0  0  0
   -7.2200   -5.3330   35.1830 C   0  0  1  0  0  0  0  0  0  0  0  0
   -3.9240   -6.2670   36.2670 C   0  0  0  0  0  3  0  0  0  0  0  0
   -6.0130   -6.0910   34.1500 C   0  0  1  0  0  3  0  0  0  0  0  0
   -3.1910   -6.6960   35.7500 C   0  0  0  0  0  3  0  0  0  0  0  0
   -5.8640   -5.3930   36.7440 C   0  0  0  0  0  3  0  0  0  0  0  0
   -4.1910   -6.8650   33.8630 C   0  0  1  0  0  0  0  0  0  0  0  0
   -7.4940   -4.9580   36.1160 C   0  0  1  0  0  3  0  0  0  0  0  0
   -7.9150   -5.3120   34.3490 C   0  0  0  0  0  0  0  0  0  0  0  0
   -6.8110   -4.9880   36.9020 C   0  0  0  0  0  3  0  0  0  0  0  0
   -6.9580   -5.6930   34.2870 C   0  0  2  0  0  0  0  0  0  0  0  0
   -8.4800   -4.5360   36.2790 C   0  0  0  0  0  3  0  0  0  0  0  0
   -8.9070   -4.8950   34.4880 C   0  0  0  0  0  3  0  0  0  0  0  0
   -9.1910   -4.5050   35.4600 C   0  0  0  0  0  0  0  0  0  0  0  0
   -2.9890   -7.2580   34.0780 C   0  0  2  0  0  0  0  0  0  0  0  0
   -3.1310   -8.2200   33.8430 C   0  0  0  0  0  1  0  0  0  0  0  0
   -2.3250   -6.7120   33.5690 C   0  0  0  0  0  3  0  0  0  0  0  0
   -1.4250   -7.0920   33.3530 C   0  0  0  0  0  3  0  0  0  0  0  0
   -0.7440   -6.5290   32.8860 C   0  0  1  0  0  3  0  0  0  0  0  0
   -0.0400   -6.0540   33.4130 C   0  0  0  0  0  0  0  0  0  0  0  0
   -0.0190   -5.0550   33.4320 C   0  0  0  0  0  1  0  0  0  0  0  0
    0.6430   -6.5790   33.9230 C   0  0  0  0  0  2  0  0  0  0  0  0
   -0.7660   -6.4420   31.8890 C   0  0  0  0  0  3  0  0  0  0  0  0
   -0.6370   -7.2500   31.3140 C   0  0  0  0  0  2  0  0  0  0  0  0
  -10.1030   -4.1180   35.6000 O   0  0  0  0  0  0  0  0  0  0  0  0
  -10.2300   -3.8050   36.1200 H   0  0  0  0  0  0  0  0  0  0  0  0
  1  5  1  0  0  0  0
  1  2  1  6  0  0  0
  2  3  2  0  0  0  0
  2  8  1  0  0  0  0
  3 11  1  0  0  0  0
  4  7  1  0  0  0  0
  4  3  1  1  0  0  0
  5 10  1  1  0  0  0
  6  9  1  0  0  0  0
  6  1  1  0  0  0  0
  7 13  1  0  0  0  0
  9 16  1  0  0  0  0
  9  4  1  0  0  0  0
 10  8  2  0  0  0  0
 11 15  2  0  0  0  0
 12  6  1  0  0  0  0
 12 20  1  0  0  0  0
 12  1  1  0  0  0  0
 12  5  1  0  0  0  0
 13 17  1  0  0  0  0
 13 15  1  0  0  0  0
 14 18  2  3  0  0  0
 14  7  1  0  0  0  0
 16 14  1  0  0  0  0
 16  4  1  0  0  0  0
 16  7  1  0  0  0  0
 18 19  1  0  0  0  0
 19 30  1  0  0  0  0
 19 17  2  0  0  0  0
 20  5  1  0  0  0  0
 21 20  1  0  0  0  0
 22 20  1  0  0  0  0
 23 22  2  0  0  0  0
 24 23  1  0  0  0  0
 24 25  1  0  0  0  0
 25 26  1  0  0  0  0
 25 27  2  0  0  0  0
 28 24  1  0  0  0  0
 29 28  2  0  0  0  0
 30 31  1  0  0  0  0
M  END
>  <MODEL>
1

>  <REMARK>
 VINA RESULT:    -9.939      0.000      0.000
 INTER + INTRA:          -1.314
 INTER:                 -13.471
 INTRA:                  12.158
 UNBOUND:                12.403
  7 active torsions:
  status: ('A' for Active; 'I' for Inactive)
    1  A    between atoms: C_22  and  O_1 
    2  A    between atoms: C_6  and  C_13 
    3  A    between atoms: C_13  and  C_20 
    4  A    between atoms: C_20  and  C_24 
    5  A    between atoms: C_25  and  C_24 
    6  A    between atoms: C_25  and  C_26 
    7  A    between atoms: C_25  and  C_27 

>  <TORSDO>
F 7

$$$$
