dataset/results/pdbqt/P08183_12306047.pdbqt
 OpenBabel02082308453D

 14 15  0  0  1  0  0  0  0  0999 V2000
   20.7620  -21.1710  -23.4170 C   0  0  1  0  0  3  0  0  0  0  0  0
   22.2560  -20.6470  -24.6500 C   0  0  0  0  0  0  0  0  0  0  0  0
   21.6980  -20.8580  -23.5760 C   0  0  0  0  0  0  0  0  0  0  0  0
   19.7080  -21.4930  -24.4280 C   0  0  0  0  0  0  0  0  0  0  0  0
   20.8750  -21.1700  -21.9330 C   0  0  0  0  0  2  0  0  0  0  0  0
   20.3850  -21.2530  -25.1240 C   0  0  0  0  0  2  0  0  0  0  0  0
   21.8120  -20.8570  -22.0920 C   0  0  0  0  0  2  0  0  0  0  0  0
   19.8250  -21.4840  -23.2590 C   0  0  0  0  0  2  0  0  0  0  0  0
   23.1560  -20.3430  -24.9610 C   0  0  0  0  0  2  0  0  0  0  0  0
   22.2470  -20.6260  -25.6490 C   0  0  0  0  0  2  0  0  0  0  0  0
   18.7590  -21.8060  -24.4430 O   0  0  0  0  0  0  0  0  0  0  0  0
   18.3410  -22.0910  -25.3040 C   0  0  0  0  0  0  0  0  0  0  0  0
   18.5070  -23.0110  -25.6610 O   0  0  0  0  0  0  0  0  0  0  0  0
   17.7550  -21.4580  -25.8110 C   0  0  0  0  0  1  0  0  0  0  0  0
  1  8  1  1  0  0  0
  1  5  1  0  0  0  0
  2  3  2  0  0  0  0
  3  1  1  0  0  0  0
  3  7  1  0  0  0  0
  4  8  1  0  0  0  0
  6  4  2  0  0  0  0
  7  5  1  0  0  0  0
  9  2  1  0  0  0  0
 10  9  1  0  0  0  0
 10  2  1  0  0  0  0
 11  4  1  0  0  0  0
 12 11  1  0  0  0  0
 13 12  2  0  0  0  0
 14 12  1  0  0  0  0
M  END
>  <MODEL>
1

>  <REMARK>
 VINA RESULT:     0.000      0.000      0.000
 INTER + INTRA:           2.033
 INTER:                   0.000
 INTRA:                   2.033
 UNBOUND:                 2.033
  2 active torsions:
  status: ('A' for Active; 'I' for Inactive)
    1  A    between atoms: O_1  and  C_6 
    2  A    between atoms: O_1  and  C_13 

>  <TORSDO>
F 2

$$$$
