dataset/results/pdbqt/P08183_985.pdbqt
 OpenBabel02082308453D

 17 18  0  0  1  0  0  0  0  0999 V2000
   13.8760    2.9970   14.6710 C   0  0  0  0  0  0  0  0  0  0  0  0
   13.3500    2.1780   14.4410 C   0  0  0  0  0  0  0  0  0  0  0  0
   13.8210    1.3110   14.2780 C   0  0  0  0  0  0  0  0  0  0  0  0
   14.8730    2.9480   14.7390 C   0  0  1  0  0  0  0  0  0  0  0  0
   14.8170    1.2620   14.3460 C   0  0  0  0  0  3  0  0  0  0  0  0
   15.3430    2.0810   14.5760 C   0  0  0  0  0  2  0  0  0  0  0  0
   13.4010    3.9070   14.8430 C   0  0  0  0  0  3  0  0  0  0  0  0
   12.3120    2.2130   14.3660 C   0  0  0  0  0  3  0  0  0  0  0  0
   12.3630    3.9660   14.7740 C   0  0  0  0  0  3  0  0  0  0  0  0
   14.9050    3.9210   14.9650 C   0  0  0  0  0  1  0  0  0  0  0  0
   11.8150    3.1130   14.5340 C   0  0  0  0  0  0  0  0  0  0  0  0
   10.8180    3.1580   14.4660 C   0  0  0  0  0  1  0  0  0  0  0  0
   13.2950    0.4920   14.0480 C   0  0  0  0  0  0  0  0  0  0  0  0
   12.9650   -0.1110   14.7750 C   0  0  0  0  0  2  0  0  0  0  0  0
   13.0980    0.2760   13.0920 C   0  0  0  0  0  1  0  0  0  0  0  0
   15.7520    3.3930   14.9110 O   0  0  0  0  0  0  0  0  0  0  0  0
   15.7760    4.0040   15.0100 H   0  0  0  0  0  0  0  0  0  0  0  0
  1  4  1  0  0  0  0
  1  7  1  0  0  0  0
  2  1  2  0  0  0  0
  3  5  2  0  0  0  0
  3  2  1  0  0  0  0
  4 16  1  0  0  0  0
  4 10  1  6  0  0  0
  5  6  1  0  0  0  0
  6  4  1  0  0  0  0
  8  2  1  0  0  0  0
  8 11  2  0  0  0  0
  9  7  2  0  0  0  0
 11  9  1  0  0  0  0
 12 11  1  0  0  0  0
 13  3  1  0  0  0  0
 13 14  2  0  0  0  0
 15 13  1  0  0  0  0
 16 17  1  0  0  0  0
M  END
>  <MODEL>
1

>  <REMARK>
 VINA RESULT:     0.000      0.000      0.000
 INTER + INTRA:           3.543
 INTER:                   0.000
 INTRA:                   3.543
 UNBOUND:                 3.543
  2 active torsions:
  status: ('A' for Active; 'I' for Inactive)
    1  A    between atoms: C_5  and  O_1 
    2  A    between atoms: C_4  and  C_9 

>  <TORSDO>
F 2

$$$$
