dataset/results/pdbqt/P08183_7460.pdbqt
 OpenBabel02082308453D

 35 47  0  0  1  0  0  0  0  0999 V2000
   11.0170   -6.6690  -14.5710 C   0  0  0  0  0  0  0  0  0  0  0  0
   11.6390   -5.9990  -14.1650 C   0  0  1  0  0  0  0  0  0  0  0  0
   11.3590   -5.0000  -14.0700 C   0  0  2  0  0  0  0  0  0  0  0  0
   11.2980   -7.6250  -14.6560 C   0  0  0  0  0  0  0  0  0  0  0  0
   10.4200   -4.6950  -14.4020 C   0  0  2  0  0  3  0  0  0  0  0  0
   10.0730   -6.3860  -14.9100 C   0  0  0  0  0  0  0  0  0  0  0  0
   12.2010   -7.9110  -14.3350 C   0  0  0  0  0  0  0  0  0  0  0  0
    9.7740   -5.3930  -14.8250 C   0  0  0  0  0  0  0  0  0  0  0  0
   10.1080   -3.6590  -14.3130 C   0  0  1  0  0  0  0  0  0  0  0  0
   12.5090   -8.9030  -14.4160 C   0  0  0  0  0  0  0  0  0  0  0  0
   12.5410   -6.2850  -13.8440 C   0  0  0  0  0  0  0  0  0  0  0  0
   10.6400   -8.3110  -15.0810 C   0  0  0  0  0  0  0  0  0  0  0  0
   12.0510   -4.2910  -13.6260 C   0  0  2  0  0  3  0  0  0  0  0  0
   11.8670   -9.6060  -14.8380 C   0  0  1  0  0  0  0  0  0  0  0  0
   10.9260   -9.3090  -15.1730 C   0  0  0  0  0  0  0  0  0  0  0  0
   10.1990   -7.0540  -14.9990 C   0  0  0  0  0  0  0  0  0  0  0  0
   12.8230   -7.2410  -13.9290 C   0  0  0  0  0  0  0  0  0  0  0  0
   10.7820   -2.9330  -13.8730 C   0  0  0  0  0  0  0  0  0  0  0  0
   12.2610   -5.2940  -13.7510 C   0  0  1  0  0  0  0  0  0  0  0  0
   11.7600   -3.2500  -13.5270 C   0  0  0  0  0  3  0  0  0  0  0  0
   13.4930   -9.1890  -14.0610 C   0  0  0  0  0  0  0  0  0  0  0  0
   10.3830   -7.6770  -15.0550 C   0  0  0  0  0  0  0  0  0  0  0  0
   12.1650  -10.6450  -14.9340 C   0  0  0  0  0  2  0  0  0  0  0  0
   13.8130  -10.2220  -14.1460 C   0  0  0  0  0  0  0  0  0  0  0  0
    9.4220   -2.9460  -14.4510 C   0  0  0  0  0  2  0  0  0  0  0  0
    9.2290   -3.8860  -14.7330 C   0  0  1  0  0  3  0  0  0  0  0  0
   13.1440  -10.9560  -14.5860 C   0  0  0  0  0  3  0  0  0  0  0  0
   14.1020   -8.5050  -13.6580 C   0  0  0  0  0  3  0  0  0  0  0  0
   14.7180  -10.4970  -13.8220 C   0  0  0  0  0  1  0  0  0  0  0  0
   11.2510  -10.2820  -15.2430 C   0  0  2  0  0  0  0  0  0  0  0  0
   10.6130  -10.7870  -14.6620 O   0  0  0  0  0  1  0  0  0  0  0  0
   11.2730  -10.4530  -16.2280 O   0  0  0  0  0  0  0  0  0  0  0  0
   10.9350  -10.9130  -16.4700 H   0  0  0  0  0  0  0  0  0  0  0  0
   10.5050   -1.9760  -13.7860 O   0  0  0  0  0  0  0  0  0  0  0  0
    9.9210   -1.8350  -13.6300 H   0  0  0  0  0  0  0  0  0  0  0  0
  2  1  1  6  0  0  0
  2  3  1  0  0  0  0
  2 11  1  0  0  0  0
  2 19  1  0  0  0  0
  3 19  1  0  0  0  0
  3 13  1  0  0  0  0
  4  1  2  0  0  0  0
  4  7  1  0  0  0  0
  5  9  1  0  0  0  0
  5  3  1  0  0  0  0
  6  8  2  0  0  0  0
  7 17  1  0  0  0  0
  8 26  1  0  0  0  0
  8  5  1  0  0  0  0
  9 18  1  0  0  0  0
 10  7  2  0  0  0  0
 10 21  1  0  0  0  0
 11 19  1  0  0  0  0
 12 22  2  0  0  0  0
 13 20  1  0  0  0  0
 14 10  1  0  0  0  0
 15 12  2  0  0  0  0
 15 14  1  0  0  0  0
 16  6  2  0  0  0  0
 16  1  1  0  0  0  0
 17 11  2  0  0  0  0
 17 28  1  0  0  0  0
 18 34  1  0  0  0  0
 18 20  2  0  0  0  0
 19 13  1  0  0  0  0
 21 28  2  0  0  0  0
 22 16  1  0  0  0  0
 22  4  1  0  0  0  0
 23 14  1  0  0  0  0
 23 27  1  0  0  0  0
 24 21  1  0  0  0  0
 24 29  1  0  0  0  0
 25  9  1  0  0  0  0
 26 25  1  0  0  0  0
 26  9  1  0  0  0  0
 27 24  2  0  0  0  0
 30 15  1  0  0  0  0
 30 14  1  0  0  0  0
 30 31  1  0  0  0  0
 32 30  1  0  0  0  0
 33 32  1  0  0  0  0
 34 35  1  0  0  0  0
M  END
>  <MODEL>
1

>  <REMARK>
 VINA RESULT:     0.000      0.000      0.000
 INTER + INTRA:           0.521
 INTER:                   0.000
 INTRA:                   0.521
 UNBOUND:                 0.521
  3 active torsions:
  status: ('A' for Active; 'I' for Inactive)
    1  A    between atoms: C_21  and  O_1 
    2  A    between atoms: O_2  and  C_31 
    3  A    between atoms: C_17  and  C_31 

>  <TORSDO>
F 3

$$$$
