dataset/results/pdbqt/P08183_442402.pdbqt
 OpenBabel02082308453D

 19 18  0  0  0  0  0  0  0  0999 V2000
  -11.7620   -9.4180   12.9110 C   0  0  0  0  0  2  0  0  0  0  0  0
  -10.9370   -8.8780   13.0720 C   0  0  0  0  0  2  0  0  0  0  0  0
  -10.0360   -9.2990   12.9710 C   0  0  0  0  0  2  0  0  0  0  0  0
   -9.3540   -9.2000   13.6960 C   0  0  0  0  0  2  0  0  0  0  0  0
   -8.8990  -10.0090   14.0690 C   0  0  0  0  0  2  0  0  0  0  0  0
   -8.8680  -10.1520   15.0580 C   0  0  0  0  0  2  0  0  0  0  0  0
   -9.1450  -11.0320   15.4450 C   0  0  0  0  0  2  0  0  0  0  0  0
   -9.6580  -11.0610   16.3030 C   0  0  0  0  0  2  0  0  0  0  0  0
  -10.2580  -11.8360   16.5010 C   0  0  0  0  0  3  0  0  0  0  0  0
  -10.6630  -11.9360   17.4090 C   0  0  0  0  0  2  0  0  0  0  0  0
  -12.4870   -9.4410   13.6000 C   0  0  0  0  0  2  0  0  0  0  0  0
  -12.9500  -10.3030   13.8100 C   0  0  0  0  0  3  0  0  0  0  0  0
  -13.2870  -10.4770   14.7350 C   0  0  0  0  0  3  0  0  0  0  0  0
  -13.6550  -11.3750   14.9720 C   0  0  0  0  0  3  0  0  0  0  0  0
  -14.0300  -11.5370   15.8850 C   0  0  0  0  0  3  0  0  0  0  0  0
  -14.4200  -12.4290   16.1140 C   0  0  0  0  0  0  0  0  0  0  0  0
  -13.8240  -13.1760   16.4060 O   0  0  0  0  0  0  0  0  0  0  0  0
  -15.4080  -12.5730   16.0520 O   0  0  0  0  0  0  0  0  0  0  0  0
  -15.7010  -12.4820   15.5130 H   0  0  0  0  0  0  0  0  0  0  0  0
  1  2  1  0  0  0  0
  1 11  1  0  0  0  0
  3  2  1  0  0  0  0
  3  4  1  0  0  0  0
  4  5  1  0  0  0  0
  5  6  1  0  0  0  0
  6  7  1  0  0  0  0
  7  8  1  0  0  0  0
  8  9  1  0  0  0  0
  9 10  2  0  0  0  0
 11 12  1  0  0  0  0
 12 13  2  0  0  0  0
 13 14  1  0  0  0  0
 14 15  2  0  0  0  0
 15 16  1  0  0  0  0
 16 17  2  0  0  0  0
 18 16  1  0  0  0  0
 19 18  1  0  0  0  0
M  END
>  <MODEL>
1

>  <REMARK>
 VINA RESULT:    -0.050      0.000      0.000
 INTER + INTRA:          -0.160
 INTER:                   0.000
 INTRA:                  -0.160
 UNBOUND:                -0.067
  15 active torsions:
  status: ('A' for Active; 'I' for Inactive)
    1  A    between atoms: O_1  and  C_18 
    2  A    between atoms: C_3  and  C_4 
    3  A    between atoms: C_3  and  C_5 
    4  A    between atoms: C_4  and  C_6 
    5  A    between atoms: C_5  and  C_7 
    6  A    between atoms: C_6  and  C_8 
    7  A    between atoms: C_7  and  C_9 
    8  A    between atoms: C_8  and  C_10 
    9  A    between atoms: C_9  and  C_11 
   10  A    between atoms: C_10  and  C_12 
   11  A    between atoms: C_11  and  C_13 
   12  A    between atoms: C_12  and  C_14 
   13  A    between atoms: C_13  and  C_15 
   14  A    between atoms: C_14  and  C_16 
   15  A    between atoms: C_16  and  C_18 

>  <TORSDO>
F 15

$$$$
