dataset/results/pdbqt/P08183_289151.pdbqt
 OpenBabel02082308453D

 15 16  0  0  0  0  0  0  0  0999 V2000
   31.7150   -6.1190   26.3130 C   0  0  0  0  0  0  0  0  0  0  0  0
   30.9390   -5.9380   26.9160 C   0  0  0  0  0  0  0  0  0  0  0  0
   32.6390   -6.1790   26.6910 C   0  0  0  0  0  0  0  0  0  0  0  0
   33.4580   -6.3670   26.0750 C   0  0  0  0  0  3  0  0  0  0  0  0
   31.0860   -5.8150   27.8980 C   0  0  0  0  0  3  0  0  0  0  0  0
   32.7870   -6.0560   27.6720 C   0  0  0  0  0  0  0  0  0  0  0  0
   31.5450   -6.2450   25.2930 C   0  0  0  0  0  3  0  0  0  0  0  0
   33.3120   -6.4960   25.0520 C   0  0  0  0  0  3  0  0  0  0  0  0
   32.0100   -5.8750   28.2760 C   0  0  0  0  0  3  0  0  0  0  0  0
   32.3490   -6.4340   24.6580 C   0  0  0  0  0  0  0  0  0  0  0  0
   33.7100   -6.1160   28.0500 C   0  0  0  0  0  1  0  0  0  0  0  0
   32.1980   -6.5560   23.6770 C   0  0  0  0  0  1  0  0  0  0  0  0
   30.0150   -5.8790   26.5380 C   0  0  0  0  0  0  0  0  0  0  0  0
   29.6570   -4.9980   26.2280 C   0  0  0  0  0  1  0  0  0  0  0  0
   29.4480   -6.7000   26.4710 C   0  0  0  0  0  2  0  0  0  0  0  0
  1  3  1  0  0  0  0
  1  2  2  0  0  0  0
  2  5  1  0  0  0  0
  3  6  2  0  0  0  0
  4  3  1  0  0  0  0
  5  9  2  0  0  0  0
  6 11  1  0  0  0  0
  6  9  1  0  0  0  0
  7  1  1  0  0  0  0
  8  4  2  0  0  0  0
 10  8  1  0  0  0  0
 10  7  2  0  0  0  0
 12 10  1  0  0  0  0
 13  2  1  0  0  0  0
 14 13  1  0  0  0  0
 15 13  2  0  0  0  0
M  END
>  <MODEL>
1

>  <REMARK>
 VINA RESULT:     0.000      0.000      0.000
 INTER + INTRA:           3.491
 INTER:                   0.000
 INTRA:                   3.491
 UNBOUND:                 3.491
  1 active torsions:
  status: ('A' for Active; 'I' for Inactive)
    1  A    between atoms: C_2  and  C_6 

>  <TORSDO>
F 1

$$$$
