dataset/results/pdbqt/P08183_240.pdbqt
 OpenBabel02082308453D

 13 13  0  0  0  0  0  0  0  0999 V2000
   12.7200   -6.2190   14.2180 C   0  0  0  0  0  0  0  0  0  0  0  0
   13.2030   -6.8670   14.8070 C   0  0  0  0  0  3  0  0  0  0  0  0
   13.7540   -7.5960   14.4010 C   0  0  0  0  0  0  0  0  0  0  0  0
   12.7890   -6.3000   13.2240 C   0  0  0  0  0  3  0  0  0  0  0  0
   13.8230   -7.6770   13.4070 C   0  0  0  0  0  0  0  0  0  0  0  0
   13.3400   -7.0290   12.8180 C   0  0  0  0  0  3  0  0  0  0  0  0
   12.1680   -5.4900   14.6240 C   0  0  0  0  0  2  0  0  0  0  0  0
   11.2350   -5.6800   14.9290 C   0  0  0  0  0  3  0  0  0  0  0  0
   10.6740   -4.9450   15.3090 C   0  0  0  0  0  2  0  0  0  0  0  0
   14.2370   -8.2450   14.9900 O   0  0  0  0  0  0  0  0  0  0  0  0
   14.1370   -8.1880   15.9840 C   0  0  0  0  0  1  0  0  0  0  0  0
   14.3740   -8.4060   13.0020 O   0  0  0  0  0  0  0  0  0  0  0  0
   14.1630   -8.7180   12.5090 H   0  0  0  0  0  0  0  0  0  0  0  0
  1  7  1  0  0  0  0
  1  2  1  0  0  0  0
  3  2  2  0  0  0  0
  3 10  1  0  0  0  0
  4  1  2  0  0  0  0
  5  3  1  0  0  0  0
  6  4  1  0  0  0  0
  6  5  2  0  0  0  0
  7  8  1  0  0  0  0
  8  9  2  0  0  0  0
 10 11  1  0  0  0  0
 12  5  1  0  0  0  0
 13 12  1  0  0  0  0
M  END
>  <MODEL>
1

>  <REMARK>
 VINA RESULT:     0.000      0.000      0.000
 INTER + INTRA:           1.665
 INTER:                   0.000
 INTRA:                   1.665
 UNBOUND:                 1.665
  4 active torsions:
  status: ('A' for Active; 'I' for Inactive)
    1  A    between atoms: O_1  and  C_6 
    2  A    between atoms: O_2  and  C_8 
    3  A    between atoms: C_3  and  C_4 
    4  A    between atoms: C_4  and  C_10 

>  <TORSDO>
F 4

$$$$
