dataset/results/pdbqt/P08183_519857.pdbqt
 OpenBabel02082308453D

 25 27  0  0  0  0  0  0  0  0999 V2000
   15.5590  -25.6960   28.7650 O   0  0  0  0  0  0  0  0  0  0  0  0
   17.4510  -23.6370   27.6780 O   0  0  0  0  0  0  0  0  0  0  0  0
   16.3450  -24.9440   27.4170 C   0  0  0  0  0  0  0  0  0  0  0  0
   15.7140  -25.6300   27.7800 C   0  0  0  0  0  0  0  0  0  0  0  0
   16.0340  -25.0750   29.3890 C   0  0  0  0  0  0  0  0  0  0  0  0
   16.8200  -24.3230   28.0410 C   0  0  0  0  0  0  0  0  0  0  0  0
   16.6650  -24.3890   29.0260 C   0  0  0  0  0  3  0  0  0  0  0  0
   16.5160  -24.8640   26.3930 C   0  0  0  0  0  0  0  0  0  0  0  0
   15.2110  -26.2840   27.1430 C   0  0  0  0  0  3  0  0  0  0  0  0
   15.3680  -26.2220   26.1150 C   0  0  0  0  0  0  0  0  0  0  0  0
   16.0250  -25.5070   25.7380 C   0  0  0  0  0  3  0  0  0  0  0  0
   15.8790  -25.1400   30.3740 C   0  0  0  0  0  0  0  0  0  0  0  0
   16.4660  -25.7240   30.9350 C   0  0  0  0  0  3  0  0  0  0  0  0
   16.3110  -25.7900   31.9210 C   0  0  0  0  0  0  0  0  0  0  0  0
   15.5690  -25.2710   32.3460 C   0  0  0  0  0  0  0  0  0  0  0  0
   14.9820  -24.6870   31.7850 C   0  0  0  0  0  3  0  0  0  0  0  0
   15.1370  -24.6210   30.7990 C   0  0  0  0  0  3  0  0  0  0  0  0
   16.8970  -26.3740   32.4820 O   0  0  0  0  0  0  0  0  0  0  0  0
   17.1010  -26.1720   33.0320 H   0  0  0  0  0  0  0  0  0  0  0  0
   15.4140  -25.3360   33.3310 O   0  0  0  0  0  0  0  0  0  0  0  0
   15.8930  -25.3080   33.7230 H   0  0  0  0  0  0  0  0  0  0  0  0
   17.1490  -24.1740   26.0420 O   0  0  0  0  0  0  0  0  0  0  0  0
   17.1060  -23.9850   25.4530 H   0  0  0  0  0  0  0  0  0  0  0  0
   14.8910  -26.8440   25.4950 O   0  0  0  0  0  0  0  0  0  0  0  0
   14.7510  -27.4190   25.6790 H   0  0  0  0  0  0  0  0  0  0  0  0
  1  5  1  0  0  0  0
  2  6  2  0  0  0  0
  3  4  1  0  0  0  0
  3  6  1  0  0  0  0
  4  1  1  0  0  0  0
  5 12  1  0  0  0  0
  6  7  1  0  0  0  0
  7  5  2  0  0  0  0
  8  3  2  0  0  0  0
  9  4  2  0  0  0  0
 10  9  1  0  0  0  0
 11 10  2  0  0  0  0
 11  8  1  0  0  0  0
 12 17  2  0  0  0  0
 12 13  1  0  0  0  0
 13 14  2  0  0  0  0
 14 15  1  0  0  0  0
 14 18  1  0  0  0  0
 15 20  1  0  0  0  0
 16 15  2  0  0  0  0
 17 16  1  0  0  0  0
 18 19  1  0  0  0  0
 20 21  1  0  0  0  0
 22  8  1  0  0  0  0
 23 22  1  0  0  0  0
 24 25  1  0  0  0  0
 24 10  1  0  0  0  0
M  END
>  <MODEL>
1

>  <REMARK>
 VINA RESULT:     0.000      0.000      0.000
 INTER + INTRA:           0.999
 INTER:                   0.000
 INTRA:                   0.999
 UNBOUND:                 0.999
  5 active torsions:
  status: ('A' for Active; 'I' for Inactive)
    1  A    between atoms: O_2  and  C_13 
    2  A    between atoms: O_4  and  C_16 
    3  A    between atoms: O_5  and  C_19 
    4  A    between atoms: O_6  and  C_21 
    5  A    between atoms: C_9  and  C_10 

>  <TORSDO>
F 5

$$$$
