dataset/results/pdbqt/P08183_111037.pdbqt
 OpenBabel02082308453D

 20 21  0  0  0  0  0  0  0  0999 V2000
  -14.0390  -18.7430  -14.5870 C   0  0  0  0  0  3  0  0  0  0  0  0
  -14.3400  -18.4590  -13.6770 C   0  0  0  0  0  2  0  0  0  0  0  0
  -13.6690  -18.3230  -12.9480 C   0  0  0  0  0  0  0  0  0  0  0  0
  -12.6970  -18.4700  -13.1300 O   0  0  0  0  0  0  0  0  0  0  0  0
  -13.9700  -18.0380  -12.0380 N   0  0  0  0  0  0  0  0  0  0  0  0
  -13.2990  -17.9020  -11.3090 C   0  0  0  0  0  2  0  0  0  0  0  0
  -14.9420  -17.8900  -11.8560 C   0  0  0  0  0  3  0  0  0  0  0  0
  -13.6000  -17.6180  -10.3990 C   0  0  0  0  0  3  0  0  0  0  0  0
  -14.5720  -17.4700  -10.2170 C   0  0  0  0  0  3  0  0  0  0  0  0
  -15.2430  -17.6060  -10.9460 C   0  0  0  0  0  3  0  0  0  0  0  0
  -14.7100  -18.8790  -15.3160 C   0  0  0  0  0  3  0  0  0  0  0  0
  -14.4090  -19.1630  -16.2260 C   0  0  0  0  0  2  0  0  0  0  0  0
  -15.0800  -19.3000  -16.9550 C   0  0  0  0  0  0  0  0  0  0  0  0
  -15.3330  -18.5380  -17.5510 C   0  0  0  0  0  3  0  0  0  0  0  0
  -16.0040  -18.6740  -18.2790 C   0  0  0  0  0  3  0  0  0  0  0  0
  -16.4230  -19.5720  -18.4120 C   0  0  0  0  0  0  0  0  0  0  0  0
  -16.1700  -20.3340  -17.8160 C   0  0  0  0  0  3  0  0  0  0  0  0
  -15.4990  -20.1980  -17.0870 C   0  0  0  0  0  3  0  0  0  0  0  0
  -17.0940  -19.7090  -19.1410 O   0  0  0  0  0  0  0  0  0  0  0  0
  -17.5500  -20.1220  -19.0680 H   0  0  0  0  0  0  0  0  0  0  0  0
  1  2  1  0  0  0  0
  2  3  1  0  0  0  0
  3  5  1  0  0  0  0
  4  3  2  0  0  0  0
  5  7  1  0  0  0  0
  5  6  1  0  0  0  0
  6  8  1  0  0  0  0
  7 10  2  0  0  0  0
  8  9  2  0  0  0  0
 10  9  1  0  0  0  0
 11  1  2  0  0  0  0
 12 11  1  0  0  0  0
 13 12  1  0  0  0  0
 14 13  2  0  0  0  0
 15 14  1  0  0  0  0
 16 15  2  0  0  0  0
 16 17  1  0  0  0  0
 17 18  2  0  0  0  0
 18 13  1  0  0  0  0
 19 20  1  0  0  0  0
 19 16  1  0  0  0  0
M  END
>  <MODEL>
1

>  <REMARK>
 VINA RESULT:     0.000      0.000      0.000
 INTER + INTRA:           1.160
 INTER:                   0.000
 INTRA:                   1.160
 UNBOUND:                 1.160
  6 active torsions:
  status: ('A' for Active; 'I' for Inactive)
    1  A    between atoms: O_2  and  C_19 
       I    between atoms: N_3  and  C_9 
    2  A    between atoms: C_9  and  C_10 
    3  A    between atoms: C_10  and  C_11 
    4  A    between atoms: C_11  and  C_12 
    5  A    between atoms: C_12  and  C_13 
    6  A    between atoms: C_13  and  C_14 

>  <TORSDO>
F 6

$$$$
