dataset/results/pdbqt/P11473_3084331.pdbqt
 OpenBabel02082308453D

 28 28  0  0  1  0  0  0  0  0999 V2000
    5.0690   10.0720   31.2130 C   0  0  1  0  0  3  0  0  0  0  0  0
    5.6130    9.8810   32.0300 O   0  0  0  0  0  0  0  0  0  0  0  0
    5.3960    9.0900   32.6030 C   0  0  0  0  0  0  0  0  0  0  0  0
    4.4540    8.7580   32.6590 O   0  0  0  0  0  0  0  0  0  0  0  0
    6.1190    8.6320   33.1180 C   0  0  0  0  0  1  0  0  0  0  0  0
    5.1650    9.4950   30.4020 C   0  0  0  0  0  2  0  0  0  0  0  0
    5.7480    9.7900   29.6450 C   0  0  1  0  0  3  0  0  0  0  0  0
    6.7060   10.0200   29.8120 O   0  0  0  0  0  0  0  0  0  0  0  0
    7.4300    9.4040   29.5030 C   0  0  0  0  0  0  0  0  0  0  0  0
    7.3270    8.4150   29.6160 O   0  0  0  0  0  0  0  0  0  0  0  0
    8.2570    9.7750   29.0800 C   0  0  0  0  0  1  0  0  0  0  0  0
    5.3720    9.8540   28.7210 C   0  0  0  0  0  2  0  0  0  0  0  0
    5.3090   10.7430   28.2670 C   0  0  0  0  0  2  0  0  0  0  0  0
    4.5300   10.9490   27.6750 C   0  0  0  0  0  2  0  0  0  0  0  0
    4.2620   11.8980   27.5120 C   0  0  0  0  0  3  0  0  0  0  0  0
    3.2950   12.1350   27.4120 C   0  0  0  0  0  2  0  0  0  0  0  0
    4.4290   10.8400   31.2080 C   0  0  0  0  0  3  0  0  0  0  0  0
    4.7170   11.7340   31.5510 C   0  0  0  0  0  3  0  0  0  0  0  0
    4.1990   12.5540   31.3060 C   0  0  0  0  0  0  0  0  0  0  0  0
    3.2400   12.6380   31.5770 C   0  0  0  0  0  3  0  0  0  0  0  0
    2.7220   13.4580   31.3330 C   0  0  0  0  0  0  0  0  0  0  0  0
    3.1630   14.1930   30.8180 C   0  0  0  0  0  0  0  0  0  0  0  0
    4.1220   14.1090   30.5480 C   0  0  0  0  0  3  0  0  0  0  0  0
    4.6400   13.2890   30.7920 C   0  0  0  0  0  3  0  0  0  0  0  0
    1.7630   13.5430   31.6040 O   0  0  0  0  0  0  0  0  0  0  0  0
    1.3740   12.9070   32.2700 C   0  0  0  0  0  1  0  0  0  0  0  0
    2.6450   15.0130   30.5740 O   0  0  0  0  0  0  0  0  0  0  0  0
    2.8800   15.5750   30.6920 H   0  0  0  0  0  0  0  0  0  0  0  0
  1  6  1  1  0  0  0
  1  2  1  0  0  0  0
  2  3  1  0  0  0  0
  3  4  2  0  0  0  0
  3  5  1  0  0  0  0
  7 12  1  6  0  0  0
  7  8  1  0  0  0  0
  7  6  1  0  0  0  0
  9 10  2  0  0  0  0
  9  8  1  0  0  0  0
 11  9  1  0  0  0  0
 13 12  1  0  0  0  0
 14 13  1  0  0  0  0
 15 14  1  0  0  0  0
 16 15  2  0  0  0  0
 17  1  1  0  0  0  0
 17 18  2  0  0  0  0
 19 18  1  0  0  0  0
 19 20  1  0  0  0  0
 21 20  2  0  0  0  0
 21 25  1  0  0  0  0
 22 21  1  0  0  0  0
 23 24  1  0  0  0  0
 23 22  2  0  0  0  0
 24 19  2  0  0  0  0
 25 26  1  0  0  0  0
 27 28  1  0  0  0  0
 27 22  1  0  0  0  0
M  END
>  <MODEL>
1

>  <REMARK>
 VINA RESULT:    -5.457      0.000      0.000
 INTER + INTRA:           1.556
 INTER:                 -10.142
 INTRA:                  11.698
 UNBOUND:                11.639
  15 active torsions:
  status: ('A' for Active; 'I' for Inactive)
    1  A    between atoms: O_1  and  C_7 
    2  A    between atoms: O_1  and  C_18 
    3  A    between atoms: O_2  and  C_9 
    4  A    between atoms: O_2  and  C_20 
    5  A    between atoms: O_5  and  C_22 
    6  A    between atoms: O_6  and  C_25 
    7  A    between atoms: C_7  and  C_8 
    8  A    between atoms: C_7  and  C_10 
    9  A    between atoms: C_8  and  C_9 
   10  A    between atoms: C_9  and  C_11 
   11  A    between atoms: C_10  and  C_12 
   12  A    between atoms: C_11  and  C_14 
   13  A    between atoms: C_12  and  C_13 
   14  A    between atoms: C_13  and  C_15 
   15  A    between atoms: C_14  and  C_16 

>  <TORSDO>
F 15

$$$$
