dataset/results/pdbqt/P11511_5280794.pdbqt
 OpenBabel02082308453D

 12 12  0  0  0  0  0  0  0  0999 V2000
   21.0640    8.3400   -8.5030 C   0  0  0  0  0  0  0  0  0  0  0  0
   21.4330    9.1830   -8.1110 C   0  0  0  0  0  0  0  0  0  0  0  0
   20.5450    7.7070   -7.9290 C   0  0  0  0  0  3  0  0  0  0  0  0
   20.7640    8.7590   -6.5710 C   0  0  0  0  0  0  0  0  0  0  0  0
   21.2820    9.3920   -7.1450 C   0  0  0  0  0  3  0  0  0  0  0  0
   20.3950    7.9160   -6.9630 C   0  0  0  0  0  3  0  0  0  0  0  0
   20.6130    8.9680   -5.6040 C   0  0  0  0  0  1  0  0  0  0  0  0
   21.2140    8.1310   -9.4690 C   0  0  0  0  0  0  0  0  0  0  0  0
   20.5570    8.4420  -10.1560 C   0  0  0  0  0  1  0  0  0  0  0  0
   22.0220    7.6120   -9.7490 C   0  0  0  0  0  2  0  0  0  0  0  0
   21.9510    9.8170   -8.6850 O   0  0  0  0  0  0  0  0  0  0  0  0
   22.3830   10.1820   -8.4310 H   0  0  0  0  0  0  0  0  0  0  0  0
  1  2  2  0  0  0  0
  1  3  1  0  0  0  0
  2  5  1  0  0  0  0
  3  6  2  0  0  0  0
  4  7  1  0  0  0  0
  5  4  2  0  0  0  0
  6  4  1  0  0  0  0
  8  1  1  0  0  0  0
  9  8  1  0  0  0  0
 10  8  2  0  0  0  0
 11 12  1  0  0  0  0
 11  2  1  0  0  0  0
M  END
>  <MODEL>
1

>  <REMARK>
 VINA RESULT:     0.000      0.000      0.000
 INTER + INTRA:           2.987
 INTER:                   0.000
 INTRA:                   2.987
 UNBOUND:                 2.987
  2 active torsions:
  status: ('A' for Active; 'I' for Inactive)
    1  A    between atoms: O_1  and  C_6 
    2  A    between atoms: C_2  and  C_3 

>  <TORSDO>
F 2

$$$$
