dataset/results/pdbqt/P20309_10131321.pdbqt
 OpenBabel02082308453D

 32 45  0  0  1  0  0  0  0  0999 V2000
    1.4420    8.6260   -3.8250 C   0  0  1  0  0  3  0  0  0  0  0  0
    2.2360    8.1190   -3.4900 C   0  0  2  0  0  0  0  0  0  0  0  0
    2.8640    7.6130   -4.1500 C   0  0  1  0  0  0  0  0  0  0  0  0
    0.8470    9.1060   -3.1800 C   0  0  0  0  0  0  0  0  0  0  0  0
    2.6630    7.6370   -5.1710 C   0  0  1  0  0  3  0  0  0  0  0  0
    1.2210    8.6640   -4.8430 C   0  0  0  0  0  0  0  0  0  0  0  0
    1.0460    9.0790   -2.2010 C   0  0  0  0  0  0  0  0  0  0  0  0
    1.8360    8.1660   -5.5200 C   0  0  0  0  0  0  0  0  0  0  0  0
    0.4360    9.5740   -1.5160 C   0  0  0  0  0  0  0  0  0  0  0  0
    3.3040    7.1190   -5.8770 C   0  0  2  0  0  0  0  0  0  0  0  0
   -0.3920   10.1050   -1.8580 C   0  0  2  0  0  0  0  0  0  0  0  0
    0.0240    9.6310   -3.5440 C   0  0  0  0  0  0  0  0  0  0  0  0
    2.4350    8.0910   -2.5110 C   0  0  0  0  0  0  0  0  0  0  0  0
    3.7200    7.0690   -3.7630 C   0  0  2  0  0  3  0  0  0  0  0  0
   -0.6000   10.1340   -2.8780 C   0  0  0  0  0  0  0  0  0  0  0  0
    0.7740    9.0140   -4.4600 C   0  0  0  0  0  0  0  0  0  0  0  0
    1.8400    8.5710   -1.8660 C   0  0  0  0  0  3  0  0  0  0  0  0
    4.1650    6.5680   -5.5150 C   0  0  0  0  0  0  0  0  0  0  0  0
    3.0570    7.5910   -3.1690 C   0  0  2  0  0  0  0  0  0  0  0  0
    0.3860    9.3270   -4.0400 C   0  0  0  0  0  0  0  0  0  0  0  0
    4.3740    6.5430   -4.4500 C   0  0  0  0  0  3  0  0  0  0  0  0
    0.6720    9.5300   -0.4590 C   0  0  0  0  0  3  0  0  0  0  0  0
   -1.0430   10.6290   -1.1650 C   0  0  0  0  0  0  0  0  0  0  0  0
    0.0370   10.0460    0.2530 C   0  0  0  0  0  0  0  0  0  0  0  0
   -0.8270   10.5990   -0.1020 C   0  0  0  0  0  3  0  0  0  0  0  0
    3.5290    6.8600   -6.8160 C   0  0  0  0  0  2  0  0  0  0  0  0
    2.7280    7.4300   -6.6330 C   0  0  1  0  0  3  0  0  0  0  0  0
   -1.1880   10.6150   -2.1850 C   0  0  1  0  0  3  0  0  0  0  0  0
   -0.1820   10.3010    1.1950 C   0  0  0  0  0  2  0  0  0  0  0  0
    0.6170    9.7310    1.0040 C   0  0  0  0  0  2  0  0  0  0  0  0
    4.7620    6.0870   -6.1560 O   0  0  0  0  0  0  0  0  0  0  0  0
    5.2480    6.3790   -6.4060 H   0  0  0  0  0  0  0  0  0  0  0  0
  1 16  1  6  0  0  0
  1  2  1  0  0  0  0
  1  4  1  0  0  0  0
  2 19  1  0  0  0  0
  2 13  1  1  0  0  0
  3 14  1  0  0  0  0
  3  2  1  0  0  0  0
  3 19  1  0  0  0  0
  4  7  2  0  0  0  0
  5  3  1  0  0  0  0
  6 16  2  0  0  0  0
  7 17  1  0  0  0  0
  7  9  1  0  0  0  0
  8  5  1  0  0  0  0
  8  6  2  0  0  0  0
  9 22  2  0  0  0  0
 10 18  1  0  0  0  0
 10  5  1  0  0  0  0
 11  9  1  0  0  0  0
 11 23  1  0  0  0  0
 12 15  2  0  0  0  0
 13 17  2  0  0  0  0
 14 19  1  0  0  0  0
 15 28  1  0  0  0  0
 15 11  1  0  0  0  0
 16 20  1  0  0  0  0
 18 21  2  0  0  0  0
 19 13  1  0  0  0  0
 20 12  2  0  0  0  0
 20  4  1  0  0  0  0
 21 14  1  0  0  0  0
 22 24  1  0  0  0  0
 23 25  2  3  0  0  0
 24 30  1  0  0  0  0
 24 29  1  0  0  0  0
 25 24  1  0  0  0  0
 26 27  1  0  0  0  0
 26 10  1  0  0  0  0
 27 10  1  0  0  0  0
 27  8  1  0  0  0  0
 28 11  1  0  0  0  0
 28 23  1  0  0  0  0
 30 29  1  0  0  0  0
 31 18  1  0  0  0  0
 32 31  1  0  0  0  0
M  END
>  <MODEL>
1

>  <REMARK>
 VINA RESULT:   -10.616      0.000      0.000
 INTER + INTRA:         -10.926
 INTER:                 -10.926
 INTRA:                   0.000
 UNBOUND:                 0.000
  1 active torsions:
  status: ('A' for Active; 'I' for Inactive)
    1  A    between atoms: C_19  and  O_1 

>  <TORSDO>
F 1

$$$$
