dataset/results/pdbqt/Q02318_3084331.pdbqt
 OpenBabel02082308453D

 28 28  0  0  1  0  0  0  0  0999 V2000
    9.9140    9.7240  -13.3130 C   0  0  1  0  0  3  0  0  0  0  0  0
    9.9920    9.8470  -14.3020 O   0  0  0  0  0  0  0  0  0  0  0  0
   10.6410   10.5100  -14.6740 C   0  0  0  0  0  0  0  0  0  0  0  0
   11.6140   10.4330  -14.4560 O   0  0  0  0  0  0  0  0  0  0  0  0
   10.3180   11.2510  -15.2620 C   0  0  0  0  0  1  0  0  0  0  0  0
    9.5580   10.4640  -12.7430 C   0  0  0  0  0  2  0  0  0  0  0  0
    8.6760   10.3610  -12.2830 C   0  0  1  0  0  3  0  0  0  0  0  0
    7.8270   10.5360  -12.7830 O   0  0  0  0  0  0  0  0  0  0  0  0
    7.5380   11.4760  -12.9630 C   0  0  0  0  0  0  0  0  0  0  0  0
    7.7540   12.2000  -12.3080 O   0  0  0  0  0  0  0  0  0  0  0  0
    7.0330   11.6930  -13.7980 C   0  0  0  0  0  1  0  0  0  0  0  0
    8.6420   10.0830  -11.3230 C   0  0  0  0  0  3  0  0  0  0  0  0
    7.9750    9.4010  -11.0230 C   0  0  0  0  0  3  0  0  0  0  0  0
    8.1070    8.9200  -10.1560 C   0  0  0  0  0  2  0  0  0  0  0  0
    7.7740    7.9830  -10.0490 C   0  0  0  0  0  3  0  0  0  0  0  0
    8.3320    7.3070   -9.5680 C   0  0  0  0  0  2  0  0  0  0  0  0
   10.1920    8.8590  -12.8940 C   0  0  0  0  0  3  0  0  0  0  0  0
   10.1510    8.0110  -13.4220 C   0  0  0  0  0  3  0  0  0  0  0  0
   10.2970    7.1320  -12.9680 C   0  0  0  0  0  0  0  0  0  0  0  0
    9.5730    6.4430  -12.9700 C   0  0  0  0  0  3  0  0  0  0  0  0
    9.7190    5.5630  -12.5160 C   0  0  0  0  0  0  0  0  0  0  0  0
   10.5890    5.3740  -12.0610 C   0  0  0  0  0  0  0  0  0  0  0  0
   11.3130    6.0640  -12.0600 C   0  0  0  0  0  3  0  0  0  0  0  0
   11.1670    6.9430  -12.5140 C   0  0  0  0  0  3  0  0  0  0  0  0
    8.9950    4.8740  -12.5180 O   0  0  0  0  0  0  0  0  0  0  0  0
    8.0360    5.1550  -12.5570 C   0  0  0  0  0  1  0  0  0  0  0  0
   10.7350    4.4950  -11.6080 O   0  0  0  0  0  0  0  0  0  0  0  0
   10.4360    3.9900  -11.8070 H   0  0  0  0  0  0  0  0  0  0  0  0
  1 17  1  6  0  0  0
  1  6  1  0  0  0  0
  2  1  1  0  0  0  0
  3  4  2  0  0  0  0
  3  2  1  0  0  0  0
  5  3  1  0  0  0  0
  7  6  1  6  0  0  0
  7 12  1  0  0  0  0
  8  7  1  0  0  0  0
  9  8  1  0  0  0  0
  9 10  2  0  0  0  0
 11  9  1  0  0  0  0
 12 13  2  0  0  0  0
 13 14  1  0  0  0  0
 14 15  1  0  0  0  0
 15 16  2  0  0  0  0
 18 19  1  0  0  0  0
 18 17  2  0  0  0  0
 19 24  1  0  0  0  0
 20 19  2  0  0  0  0
 20 21  1  0  0  0  0
 21 22  2  0  0  0  0
 22 23  1  0  0  0  0
 22 27  1  0  0  0  0
 24 23  2  0  0  0  0
 25 21  1  0  0  0  0
 26 25  1  0  0  0  0
 28 27  1  0  0  0  0
M  END
>  <MODEL>
1

>  <REMARK>
 VINA RESULT:    -7.739      0.000      0.000
 INTER + INTRA:          -1.681
 INTER:                 -13.254
 INTRA:                  11.573
 UNBOUND:                12.618
  15 active torsions:
  status: ('A' for Active; 'I' for Inactive)
    1  A    between atoms: O_1  and  C_7 
    2  A    between atoms: O_1  and  C_18 
    3  A    between atoms: O_2  and  C_9 
    4  A    between atoms: O_2  and  C_20 
    5  A    between atoms: O_5  and  C_22 
    6  A    between atoms: O_6  and  C_25 
    7  A    between atoms: C_7  and  C_8 
    8  A    between atoms: C_7  and  C_10 
    9  A    between atoms: C_8  and  C_9 
   10  A    between atoms: C_9  and  C_11 
   11  A    between atoms: C_10  and  C_12 
   12  A    between atoms: C_11  and  C_14 
   13  A    between atoms: C_12  and  C_13 
   14  A    between atoms: C_13  and  C_15 
   15  A    between atoms: C_14  and  C_16 

>  <TORSDO>
F 15

$$$$
