dataset/results/pdbqt/Q02318_222284.pdbqt
 OpenBabel02082308453D

 14 16  0  0  1  0  0  0  0  0999 V2000
   -6.8420    2.2450   -3.6160 C   0  0  0  0  0  0  0  0  0  0  0  0
   -7.1960    1.5860   -2.9520 C   0  0  0  0  0  0  0  0  0  0  0  0
   -7.1570    3.1940   -3.5950 C   0  0  0  0  0  0  0  0  0  0  0  0
   -7.8650    1.8760   -2.2680 C   0  0  0  0  0  3  0  0  0  0  0  0
   -8.1810    2.8240   -2.2480 C   0  0  0  0  0  0  0  0  0  0  0  0
   -7.8270    3.4830   -2.9120 C   0  0  0  0  0  3  0  0  0  0  0  0
   -8.8510    3.1140   -1.5640 C   0  0  0  0  0  1  0  0  0  0  0  0
   -6.1720    1.9550   -4.2990 C   0  0  1  0  0  0  0  0  0  0  0  0
   -6.3870    2.7610   -4.8520 C   0  0  0  0  0  2  0  0  0  0  0  0
   -5.9570    1.1500   -3.7470 C   0  0  0  0  0  2  0  0  0  0  0  0
   -5.5020    1.6650   -4.9830 O   0  0  0  0  0  0  0  0  0  0  0  0
   -4.5780    2.0470   -4.9710 C   0  0  0  0  0  0  0  0  0  0  0  0
   -3.9700    1.8600   -4.2000 O   0  0  0  0  0  0  0  0  0  0  0  0
   -4.2620    2.6160   -5.7300 C   0  0  0  0  0  1  0  0  0  0  0  0
  1  3  2  0  0  0  0
  1  2  1  0  0  0  0
  2  4  2  0  0  0  0
  3  6  1  0  0  0  0
  4  5  1  0  0  0  0
  5  7  1  0  0  0  0
  6  5  2  0  0  0  0
  8 11  1  6  0  0  0
  8 10  1  0  0  0  0
  8  1  1  0  0  0  0
  9  8  1  0  0  0  0
  9  3  1  0  0  0  0
 10  2  1  0  0  0  0
 11 12  1  0  0  0  0
 12 13  2  0  0  0  0
 14 12  1  0  0  0  0
M  END
>  <MODEL>
1

>  <REMARK>
 VINA RESULT:    -7.063      0.000      0.000
 INTER + INTRA:           1.068
 INTER:                  -8.273
 INTRA:                   9.342
 UNBOUND:                 9.371
  3 active torsions:
  status: ('A' for Active; 'I' for Inactive)
    1  A    between atoms: O_1  and  C_4 
    2  A    between atoms: O_1  and  C_13 
    3  A    between atoms: C_3  and  C_4 

>  <TORSDO>
F 3

$$$$
