dataset/results/pdbqt/Q13002_6989.pdbqt
 OpenBabel02082308453D

  8  8  0  0  0  0  0  0  0  0999 V2000
   -6.4210   12.0770   26.4710 C   0  0  0  0  0  0  0  0  0  0  0  0
   -5.7230   11.9440   25.7670 C   0  0  0  0  0  3  0  0  0  0  0  0
   -7.3880   11.9620   26.2440 C   0  0  0  0  0  3  0  0  0  0  0  0
   -5.9930   11.6970   24.8360 C   0  0  0  0  0  3  0  0  0  0  0  0
   -7.6580   11.7150   25.3130 C   0  0  0  0  0  3  0  0  0  0  0  0
   -6.9600   11.5820   24.6090 C   0  0  0  0  0  3  0  0  0  0  0  0
   -6.1510   12.3240   27.4010 C   0  0  0  0  0  3  0  0  0  0  0  0
   -6.0940   11.6200   28.1090 O   0  0  0  0  0  0  0  0  0  0  0  0
  1  7  1  0  0  0  0
  2  1  2  0  0  0  0
  3  1  1  0  0  0  0
  4  2  1  0  0  0  0
  5  3  2  0  0  0  0
  6  4  2  0  0  0  0
  6  5  1  0  0  0  0
  7  8  2  0  0  0  0
M  END
>  <MODEL>
1

>  <REMARK>
 VINA RESULT:    -4.722      0.000      0.000
 INTER + INTRA:          -4.860
 INTER:                  -5.000
 INTRA:                   0.141
 UNBOUND:                 0.139
  1 active torsions:
  status: ('A' for Active; 'I' for Inactive)
    1  A    between atoms: C_2  and  C_8 

>  <TORSDO>
F 1

$$$$
