dataset/results/pdbqt/Q92887_3084331.pdbqt
 OpenBabel02082308453D

 28 28  0  0  1  0  0  0  0  0999 V2000
   -4.2540  -10.7380    3.5640 C   0  0  2  0  0  3  0  0  0  0  0  0
   -3.6820  -10.3230    4.2720 O   0  0  0  0  0  0  0  0  0  0  0  0
   -2.9520   -9.6890    4.0170 C   0  0  0  0  0  0  0  0  0  0  0  0
   -3.1410   -8.9370    3.3860 O   0  0  0  0  0  0  0  0  0  0  0  0
   -2.0330   -9.8080    4.3930 C   0  0  0  0  0  1  0  0  0  0  0  0
   -3.8320  -11.2610    2.8230 C   0  0  0  0  0  2  0  0  0  0  0  0
   -3.9740  -12.2490    2.7650 C   0  0  0  0  0  0  0  0  0  0  0  0
   -3.8870  -12.8160    3.5840 O   0  0  0  0  0  0  0  0  0  0  0  0
   -3.3640  -13.6670    3.5500 C   0  0  0  0  0  0  0  0  0  0  0  0
   -2.3700  -13.6400    3.4380 O   0  0  0  0  0  0  0  0  0  0  0  0
   -3.8340  -14.5470    3.6270 C   0  0  0  0  0  1  0  0  0  0  0  0
   -4.2040  -12.6700    1.8880 C   0  0  0  0  0  3  0  0  0  0  0  0
   -4.2400  -12.1110    1.0590 C   0  0  0  0  0  3  0  0  0  0  0  0
   -4.5020  -12.5260    0.1880 C   0  0  0  0  0  3  0  0  0  0  0  0
   -4.5990  -11.9560   -0.6280 C   0  0  0  0  0  3  0  0  0  0  0  0
   -4.2960  -12.2990   -1.5170 C   0  0  0  0  0  2  0  0  0  0  0  0
   -5.2470  -10.6290    3.5970 C   0  0  0  0  0  3  0  0  0  0  0  0
   -5.7150  -10.5680    4.4780 C   0  0  0  0  0  3  0  0  0  0  0  0
   -6.7140  -10.5420    4.5140 C   0  0  0  0  0  0  0  0  0  0  0  0
   -7.1750  -10.1030    5.2850 C   0  0  0  0  0  3  0  0  0  0  0  0
   -8.1740  -10.0760    5.3200 C   0  0  0  0  0  0  0  0  0  0  0  0
   -8.7120  -10.4880    4.5840 C   0  0  0  0  0  0  0  0  0  0  0  0
   -8.2500  -10.9270    3.8130 C   0  0  0  0  0  3  0  0  0  0  0  0
   -7.2510  -10.9540    3.7780 C   0  0  0  0  0  3  0  0  0  0  0  0
   -8.6360   -9.6370    6.0910 O   0  0  0  0  0  0  0  0  0  0  0  0
   -8.1110   -9.0840    6.7390 C   0  0  0  0  0  1  0  0  0  0  0  0
   -9.7110  -10.4610    4.6200 O   0  0  0  0  0  0  0  0  0  0  0  0
  -10.0180  -10.8440    4.9980 H   0  0  0  0  0  0  0  0  0  0  0  0
  1  6  1  6  0  0  0
  1 17  1  0  0  0  0
  1  2  1  0  0  0  0
  3  2  1  0  0  0  0
  3  5  1  0  0  0  0
  4  3  2  0  0  0  0
  7  6  1  0  0  0  0
  7  8  1  0  0  0  0
  9  8  1  0  0  0  0
  9 11  1  0  0  0  0
 10  9  2  0  0  0  0
 12  7  2  0  0  0  0
 13 12  1  0  0  0  0
 14 13  2  0  0  0  0
 15 14  1  0  0  0  0
 16 15  2  0  0  0  0
 17 18  2  0  0  0  0
 18 19  1  0  0  0  0
 19 20  1  0  0  0  0
 20 21  2  0  0  0  0
 21 25  1  0  0  0  0
 22 27  1  0  0  0  0
 22 21  1  0  0  0  0
 23 22  2  0  0  0  0
 24 23  1  0  0  0  0
 24 19  2  0  0  0  0
 25 26  1  0  0  0  0
 27 28  1  0  0  0  0
M  END
>  <MODEL>
1

>  <REMARK>
 VINA RESULT:    -7.122      0.000      0.000
 INTER + INTRA:          -0.758
 INTER:                 -12.848
 INTRA:                  12.090
 UNBOUND:                12.401
  15 active torsions:
  status: ('A' for Active; 'I' for Inactive)
    1  A    between atoms: O_1  and  C_7 
    2  A    between atoms: O_1  and  C_18 
    3  A    between atoms: O_2  and  C_9 
    4  A    between atoms: O_2  and  C_20 
    5  A    between atoms: O_5  and  C_22 
    6  A    between atoms: O_6  and  C_25 
    7  A    between atoms: C_7  and  C_8 
    8  A    between atoms: C_7  and  C_10 
    9  A    between atoms: C_8  and  C_9 
   10  A    between atoms: C_9  and  C_11 
   11  A    between atoms: C_10  and  C_12 
   12  A    between atoms: C_11  and  C_14 
   13  A    between atoms: C_12  and  C_13 
   14  A    between atoms: C_13  and  C_15 
   15  A    between atoms: C_14  and  C_16 

>  <TORSDO>
F 15

$$$$
