dataset/results/pdbqt/Q92887_64945.pdbqt
 OpenBabel02082308453D

 31 40  0  0  1  0  0  0  0  0999 V2000
    7.5960   24.1030  -17.1920 C   0  0  2  0  0  0  0  0  0  0  0  0
    6.8550   23.5060  -16.8840 C   0  0  0  0  0  0  0  0  0  0  0  0
    6.3580   23.7190  -16.0430 C   0  0  0  0  0  0  0  0  0  0  0  0
    6.6010   24.5300  -15.5110 C   0  0  2  0  0  0  0  0  0  0  0  0
    7.9600   23.7260  -18.0360 C   0  0  1  0  0  0  0  0  0  0  0  0
    7.8380   24.9140  -16.6600 C   0  0  1  0  0  3  0  0  0  0  0  0
    6.0910   24.7650  -14.6330 C   0  0  2  0  0  0  0  0  0  0  0  0
    6.7690   22.7640  -17.5400 C   0  0  0  0  0  3  0  0  0  0  0  0
    7.3410   25.1270  -15.8190 C   0  0  1  0  0  3  0  0  0  0  0  0
    7.4500   22.9000  -18.2520 C   0  0  0  0  0  3  0  0  0  0  0  0
    5.5890   23.0870  -15.7350 C   0  0  0  0  0  2  0  0  0  0  0  0
    8.3360   24.7010  -17.5010 C   0  0  1  0  0  0  0  0  0  0  0  0
    5.3190   24.1470  -14.3050 C   0  0  0  0  0  0  0  0  0  0  0  0
    6.3730   25.6500  -14.0720 C   0  0  1  0  0  3  0  0  0  0  0  0
    5.0660   23.3020  -14.8600 C   0  0  0  0  0  3  0  0  0  0  0  0
    6.8330   25.3580  -14.9470 C   0  0  2  0  0  0  0  0  0  0  0  0
    4.7740   24.3720  -13.3940 C   0  0  0  0  0  2  0  0  0  0  0  0
    5.8420   25.8950  -13.1570 C   0  0  0  0  0  3  0  0  0  0  0  0
    5.0380   25.2510  -12.8160 C   0  0  0  0  0  0  0  0  0  0  0  0
    8.7090   24.1100  -18.5760 C   0  0  1  0  0  0  0  0  0  0  0  0
    9.5990   24.2720  -18.1500 C   0  0  0  0  0  1  0  0  0  0  0  0
    8.5690   24.3320  -19.5400 C   0  0  0  0  0  3  0  0  0  0  0  0
    9.2070   23.9890  -20.2310 C   0  0  0  0  0  3  0  0  0  0  0  0
    9.0410   24.1720  -21.1990 C   0  0  1  0  0  3  0  0  0  0  0  0
    8.4950   23.5340  -21.7420 C   0  0  0  0  0  0  0  0  0  0  0  0
    7.5980   23.8090  -22.0850 C   0  0  0  0  0  1  0  0  0  0  0  0
    8.8470   22.6180  -21.9410 C   0  0  0  0  0  2  0  0  0  0  0  0
    9.4200   24.9930  -21.6260 C   0  0  0  0  0  3  0  0  0  0  0  0
   10.4110   25.0910  -21.7260 C   0  0  0  0  0  2  0  0  0  0  0  0
    4.5420   25.4680  -11.9750 O   0  0  0  0  0  0  0  0  0  0  0  0
    4.4240   25.0210  -11.5610 H   0  0  0  0  0  0  0  0  0  0  0  0
  1  2  1  6  0  0  0
  1  6  1  0  0  0  0
  2  3  2  0  0  0  0
  3 11  1  0  0  0  0
  4  3  1  1  0  0  0
  4 16  1  0  0  0  0
  4  7  1  0  0  0  0
  5 10  1  6  0  0  0
  5 12  1  0  0  0  0
  5  1  1  0  0  0  0
  6  9  1  0  0  0  0
  7 13  1  0  0  0  0
  7 14  1  0  0  0  0
  8  2  1  0  0  0  0
  9  4  1  0  0  0  0
  9 16  1  0  0  0  0
 10  8  2  0  0  0  0
 11 15  1  0  0  0  0
 12  1  1  0  0  0  0
 12  6  1  0  0  0  0
 13 17  1  0  0  0  0
 14 18  1  0  0  0  0
 15 13  2  0  0  0  0
 16  7  1  0  0  0  0
 16 14  1  0  0  0  0
 17 19  1  0  0  0  0
 18 19  2  0  0  0  0
 19 30  1  0  0  0  0
 20 21  1  0  0  0  0
 20  5  1  0  0  0  0
 20 12  1  0  0  0  0
 22 20  1  0  0  0  0
 23 22  2  0  0  0  0
 24 23  1  0  0  0  0
 25 24  1  0  0  0  0
 26 25  1  0  0  0  0
 27 25  2  0  0  0  0
 28 24  1  0  0  0  0
 29 28  2  0  0  0  0
 30 31  1  0  0  0  0
M  END
>  <MODEL>
1

>  <REMARK>
 VINA RESULT:   -11.011      0.000      0.000
 INTER + INTRA:          -2.740
 INTER:                 -15.629
 INTRA:                  12.889
 UNBOUND:                12.455
  7 active torsions:
  status: ('A' for Active; 'I' for Inactive)
    1  A    between atoms: C_22  and  O_1 
    2  A    between atoms: C_6  and  C_13 
    3  A    between atoms: C_13  and  C_20 
    4  A    between atoms: C_20  and  C_24 
    5  A    between atoms: C_25  and  C_24 
    6  A    between atoms: C_25  and  C_26 
    7  A    between atoms: C_25  and  C_27 

>  <TORSDO>
F 7

$$$$
