dataset/results/pdbqt/Q92887_73145.pdbqt
 OpenBabel02082308453D

 15 16  0  0  0  0  0  0  0  0999 V2000
  -19.3060  -10.7470    5.9160 C   0  0  0  0  0  0  0  0  0  0  0  0
  -20.0450  -11.3980    5.7430 C   0  0  0  0  0  0  0  0  0  0  0  0
  -18.6710  -10.5050    5.1820 C   0  0  0  0  0  0  0  0  0  0  0  0
  -20.1500  -11.8050    4.8360 C   0  0  0  0  0  3  0  0  0  0  0  0
  -17.8950   -9.8290    5.3470 C   0  0  0  0  0  3  0  0  0  0  0  0
  -18.7760  -10.9130    4.2750 C   0  0  0  0  0  0  0  0  0  0  0  0
  -19.5150  -11.5630    4.1020 C   0  0  0  0  0  3  0  0  0  0  0  0
  -19.2090  -10.3310    6.8660 C   0  0  0  0  0  3  0  0  0  0  0  0
  -17.7800   -9.4000    6.2900 C   0  0  0  0  0  3  0  0  0  0  0  0
  -18.4410   -9.6530    7.0540 C   0  0  0  0  0  0  0  0  0  0  0  0
  -18.1410  -10.6700    3.5420 C   0  0  0  0  0  1  0  0  0  0  0  0
  -18.3390   -9.2470    7.9620 C   0  0  0  0  0  1  0  0  0  0  0  0
  -20.6800  -11.6400    6.4760 C   0  0  0  0  0  0  0  0  0  0  0  0
  -21.4260  -11.0190    6.7170 C   0  0  0  0  0  1  0  0  0  0  0  0
  -20.5690  -12.5030    6.9690 C   0  0  0  0  0  2  0  0  0  0  0  0
  1  8  1  0  0  0  0
  2  1  1  0  0  0  0
  2 13  1  0  0  0  0
  3  5  1  0  0  0  0
  3  1  2  0  0  0  0
  4  2  2  0  0  0  0
  5  9  2  0  0  0  0
  6  3  1  0  0  0  0
  7  6  2  0  0  0  0
  7  4  1  0  0  0  0
  8 10  2  0  0  0  0
  9 10  1  0  0  0  0
 10 12  1  0  0  0  0
 11  6  1  0  0  0  0
 13 14  1  0  0  0  0
 13 15  2  0  0  0  0
M  END
>  <MODEL>
1

>  <REMARK>
 VINA RESULT:    -8.541      0.000      0.000
 INTER + INTRA:          -5.445
 INTER:                  -8.991
 INTRA:                   3.546
 UNBOUND:                 3.595
  1 active torsions:
  status: ('A' for Active; 'I' for Inactive)
    1  A    between atoms: C_2  and  C_5 

>  <TORSDO>
F 1

$$$$
