dataset/results/pdbqt/Q92887_222284.pdbqt
 OpenBabel02082308453D

 14 14  0  0  0  0  0  0  0  0999 V2000
    6.5130   -1.4030  -34.0860 C   0  0  0  0  0  0  0  0  0  0  0  0
    7.2530   -0.7320  -34.0440 C   0  0  0  0  0  3  0  0  0  0  0  0
    6.4260   -2.0040  -34.8810 C   0  0  0  0  0  3  0  0  0  0  0  0
    7.9060   -0.6610  -34.7980 C   0  0  0  0  0  3  0  0  0  0  0  0
    7.8190   -1.2610  -35.5930 C   0  0  0  0  0  0  0  0  0  0  0  0
    7.0790   -1.9330  -35.6350 C   0  0  0  0  0  3  0  0  0  0  0  0
    8.4730   -1.1900  -36.3470 C   0  0  0  0  0  1  0  0  0  0  0  0
    5.8600   -1.4740  -33.3320 C   0  0  0  0  0  0  0  0  0  0  0  0
    5.4190   -0.6290  -33.6340 C   0  0  0  0  0  1  0  0  0  0  0  0
    6.3000   -2.3200  -33.0300 C   0  0  0  0  0  1  0  0  0  0  0  0
    5.2070   -1.5460  -32.5780 O   0  0  0  0  0  0  0  0  0  0  0  0
    4.2510   -1.7740  -32.7640 C   0  0  0  0  0  0  0  0  0  0  0  0
    3.9990   -2.7090  -33.0110 O   0  0  0  0  0  0  0  0  0  0  0  0
    3.5470   -1.0660  -32.7030 C   0  0  0  0  0  1  0  0  0  0  0  0
  1  2  1  0  0  0  0
  1  8  1  0  0  0  0
  3  1  2  0  0  0  0
  4  2  2  0  0  0  0
  5  4  1  0  0  0  0
  6  5  2  0  0  0  0
  6  3  1  0  0  0  0
  7  5  1  0  0  0  0
  8 10  1  0  0  0  0
  8 11  1  0  0  0  0
  9  8  1  0  0  0  0
 12 14  1  0  0  0  0
 12 11  1  0  0  0  0
 13 12  2  0  0  0  0
M  END
>  <MODEL>
1

>  <REMARK>
 VINA RESULT:    -7.453      0.000      0.000
 INTER + INTRA:           0.535
 INTER:                  -8.708
 INTRA:                   9.243
 UNBOUND:                 9.295
  3 active torsions:
  status: ('A' for Active; 'I' for Inactive)
    1  A    between atoms: O_1  and  C_4 
    2  A    between atoms: O_1  and  C_13 
    3  A    between atoms: C_3  and  C_4 

>  <TORSDO>
F 3

$$$$
