dataset/results/pdbqt/Q9NPD5_64945.pdbqt
 OpenBabel02082308453D

 31 40  0  0  1  0  0  0  0  0999 V2000
   -9.5760    2.2380    8.1660 C   0  0  2  0  0  0  0  0  0  0  0  0
   -9.8770    2.9910    7.5800 C   0  0  0  0  0  0  0  0  0  0  0  0
   -9.5010    3.9080    7.7110 C   0  0  0  0  0  0  0  0  0  0  0  0
   -8.8240    4.0730    8.4290 C   0  0  2  0  0  0  0  0  0  0  0  0
  -10.0590    1.4190    7.8810 C   0  0  2  0  0  0  0  0  0  0  0  0
   -8.8990    2.4030    8.8840 C   0  0  2  0  0  3  0  0  0  0  0  0
   -8.4230    5.0230    8.5770 C   0  0  2  0  0  0  0  0  0  0  0  0
  -10.5430    2.6290    6.9380 C   0  0  0  0  0  3  0  0  0  0  0  0
   -8.5230    3.3210    9.0150 C   0  0  1  0  0  3  0  0  0  0  0  0
  -10.6560    1.6590    7.1240 C   0  0  0  0  0  3  0  0  0  0  0  0
   -9.8240    4.6820    7.0930 C   0  0  0  0  0  2  0  0  0  0  0  0
   -9.2750    1.4860    8.7520 C   0  0  2  0  0  0  0  0  0  0  0  0
   -8.7320    5.8120    7.9710 C   0  0  0  0  0  0  0  0  0  0  0  0
   -7.6900    5.1780    9.3620 C   0  0  1  0  0  3  0  0  0  0  0  0
   -9.4370    5.6400    7.2230 C   0  0  0  0  0  3  0  0  0  0  0  0
   -8.1270    4.2660    9.1600 C   0  0  2  0  0  0  0  0  0  0  0  0
   -8.3280    6.8100    8.1070 C   0  0  0  0  0  2  0  0  0  0  0  0
   -7.2720    6.1670    9.5170 C   0  0  0  0  0  3  0  0  0  0  0  0
   -7.5940    6.9890    8.8850 C   0  0  0  0  0  0  0  0  0  0  0  0
   -9.9620    0.5090    8.2860 C   0  0  2  0  0  0  0  0  0  0  0  0
   -9.1720   -0.0590    8.0550 C   0  0  0  0  0  1  0  0  0  0  0  0
  -10.6550    0.1680    8.9210 C   0  0  0  0  0  3  0  0  0  0  0  0
  -10.7450   -0.8150    9.0820 C   0  0  0  0  0  3  0  0  0  0  0  0
  -11.5400   -1.1700    9.5730 C   0  0  1  0  0  3  0  0  0  0  0  0
  -12.0550   -1.9410    9.1990 C   0  0  0  0  0  0  0  0  0  0  0  0
  -13.0430   -1.8650    9.0660 C   0  0  0  0  0  2  0  0  0  0  0  0
  -11.5820   -2.7890    8.9580 C   0  0  0  0  0  1  0  0  0  0  0  0
  -11.8200   -0.7540   10.4390 C   0  0  0  0  0  3  0  0  0  0  0  0
  -11.2950   -0.9330   11.2720 C   0  0  0  0  0  2  0  0  0  0  0  0
   -7.2160    7.9050    9.0190 O   0  0  0  0  0  0  0  0  0  0  0  0
   -6.9950    8.0710    9.5740 H   0  0  0  0  0  0  0  0  0  0  0  0
  1  2  1  6  0  0  0
  1 12  1  0  0  0  0
  1  6  1  0  0  0  0
  2  3  2  0  0  0  0
  4  3  1  1  0  0  0
  4  7  1  0  0  0  0
  4  9  1  0  0  0  0
  4 16  1  0  0  0  0
  5 10  1  1  0  0  0
  5  1  1  0  0  0  0
  5 20  1  0  0  0  0
  5 12  1  0  0  0  0
  6  9  1  0  0  0  0
  7 16  1  0  0  0  0
  7 14  1  0  0  0  0
  8 10  2  0  0  0  0
  8  2  1  0  0  0  0
  9 16  1  0  0  0  0
 11 15  1  0  0  0  0
 11  3  1  0  0  0  0
 12  6  1  0  0  0  0
 13 17  1  0  0  0  0
 13  7  1  0  0  0  0
 14 18  1  0  0  0  0
 15 13  2  0  0  0  0
 16 14  1  0  0  0  0
 17 19  1  0  0  0  0
 19 30  1  0  0  0  0
 19 18  2  0  0  0  0
 20 12  1  0  0  0  0
 20 22  1  0  0  0  0
 21 20  1  0  0  0  0
 22 23  2  0  0  0  0
 23 24  1  0  0  0  0
 24 28  1  0  0  0  0
 25 24  1  0  0  0  0
 26 25  2  0  0  0  0
 27 25  1  0  0  0  0
 28 29  2  0  0  0  0
 30 31  1  0  0  0  0
M  END
>  <MODEL>
1

>  <REMARK>
 VINA RESULT:   -10.573      0.000      0.000
 INTER + INTRA:          -2.481
 INTER:                 -14.756
 INTRA:                  12.274
 UNBOUND:                12.109
  7 active torsions:
  status: ('A' for Active; 'I' for Inactive)
    1  A    between atoms: C_22  and  O_1 
    2  A    between atoms: C_6  and  C_13 
    3  A    between atoms: C_13  and  C_20 
    4  A    between atoms: C_20  and  C_24 
    5  A    between atoms: C_25  and  C_24 
    6  A    between atoms: C_25  and  C_26 
    7  A    between atoms: C_25  and  C_27 

>  <TORSDO>
F 7

$$$$
