dataset/results/pdbqt/Q9Y6L6_64945.pdbqt
 OpenBabel02082308453D

 31 40  0  0  1  0  0  0  0  0999 V2000
   -4.9000    4.9300    7.6150 C   0  0  1  0  0  0  0  0  0  0  0  0
   -5.5050    4.1440    7.7450 C   0  0  0  0  0  0  0  0  0  0  0  0
   -6.3590    4.2500    8.2560 C   0  0  0  0  0  0  0  0  0  0  0  0
   -6.6070    5.1410    8.6360 C   0  0  1  0  0  0  0  0  0  0  0  0
   -4.1150    4.6240    7.0880 C   0  0  1  0  0  0  0  0  0  0  0  0
   -5.1480    5.8210    7.9950 C   0  0  2  0  0  3  0  0  0  0  0  0
   -7.4920    5.2670    9.1710 C   0  0  2  0  0  0  0  0  0  0  0  0
   -5.0890    3.3600    7.2990 C   0  0  0  0  0  3  0  0  0  0  0  0
   -6.0010    5.9270    8.5050 C   0  0  2  0  0  3  0  0  0  0  0  0
   -4.2300    3.6570    6.8930 C   0  0  0  0  0  3  0  0  0  0  0  0
   -6.9790    3.4230    8.3850 C   0  0  0  0  0  2  0  0  0  0  0  0
   -4.2950    5.7150    7.4840 C   0  0  1  0  0  0  0  0  0  0  0  0
   -8.1270    4.4530    9.3110 C   0  0  0  0  0  0  0  0  0  0  0  0
   -7.7400    6.2430    9.5740 C   0  0  1  0  0  3  0  0  0  0  0  0
   -7.8690    3.5250    8.9160 C   0  0  0  0  0  3  0  0  0  0  0  0
   -6.8820    6.0480    9.0360 C   0  0  1  0  0  0  0  0  0  0  0  0
   -9.0550    4.5600    9.8650 C   0  0  0  0  0  2  0  0  0  0  0  0
   -8.6620    6.3740   10.1300 C   0  0  0  0  0  3  0  0  0  0  0  0
   -9.3240    5.5270   10.2770 C   0  0  0  0  0  0  0  0  0  0  0  0
   -3.3420    5.1920    6.8040 C   0  0  1  0  0  0  0  0  0  0  0  0
   -2.5640    5.3220    7.4190 C   0  0  0  0  0  1  0  0  0  0  0  0
   -3.3470    5.6290    5.9050 C   0  0  0  0  0  3  0  0  0  0  0  0
   -2.5860    6.2190    5.6310 C   0  0  0  0  0  3  0  0  0  0  0  0
   -2.5780    6.6330    4.7220 C   0  0  2  0  0  3  0  0  0  0  0  0
   -1.7150    6.9420    4.3210 C   0  0  0  0  0  0  0  0  0  0  0  0
   -1.5010    6.7260    3.3690 C   0  0  0  0  0  1  0  0  0  0  0  0
   -1.0670    7.4670    4.8730 C   0  0  0  0  0  2  0  0  0  0  0  0
   -3.4320    6.7400    4.2120 C   0  0  0  0  0  3  0  0  0  0  0  0
   -3.9770    7.5720    4.3190 C   0  0  0  0  0  2  0  0  0  0  0  0
  -10.1760    5.6360   10.7880 O   0  0  0  0  0  0  0  0  0  0  0  0
  -10.6360    5.2270   10.7150 H   0  0  0  0  0  0  0  0  0  0  0  0
  1  2  1  1  0  0  0
  1  6  1  0  0  0  0
  2  3  2  0  0  0  0
  3 11  1  0  0  0  0
  4  3  1  6  0  0  0
  4 16  1  0  0  0  0
  4  7  1  0  0  0  0
  5 10  1  6  0  0  0
  5 12  1  0  0  0  0
  5  1  1  0  0  0  0
  6  9  1  0  0  0  0
  7 13  1  0  0  0  0
  7 14  1  0  0  0  0
  8  2  1  0  0  0  0
  9  4  1  0  0  0  0
  9 16  1  0  0  0  0
 10  8  2  0  0  0  0
 11 15  1  0  0  0  0
 12  1  1  0  0  0  0
 12  6  1  0  0  0  0
 13 17  1  0  0  0  0
 14 18  1  0  0  0  0
 15 13  2  0  0  0  0
 16  7  1  0  0  0  0
 16 14  1  0  0  0  0
 17 19  1  0  0  0  0
 18 19  2  0  0  0  0
 19 30  1  0  0  0  0
 20  5  1  0  0  0  0
 20 21  1  0  0  0  0
 20 12  1  0  0  0  0
 22 20  1  0  0  0  0
 23 22  2  0  0  0  0
 24 23  1  0  0  0  0
 25 24  1  0  0  0  0
 25 27  2  0  0  0  0
 26 25  1  0  0  0  0
 28 29  2  0  0  0  0
 28 24  1  0  0  0  0
 31 30  1  0  0  0  0
M  END
>  <MODEL>
1

>  <REMARK>
 VINA RESULT:   -12.308      0.000      0.000
 INTER + INTRA:          -4.933
 INTER:                 -18.015
 INTRA:                  13.082
 UNBOUND:                12.053
  7 active torsions:
  status: ('A' for Active; 'I' for Inactive)
    1  A    between atoms: C_22  and  O_1 
    2  A    between atoms: C_6  and  C_13 
    3  A    between atoms: C_13  and  C_20 
    4  A    between atoms: C_20  and  C_24 
    5  A    between atoms: C_25  and  C_24 
    6  A    between atoms: C_25  and  C_26 
    7  A    between atoms: C_25  and  C_27 

>  <TORSDO>
F 7

$$$$
