REMARK  6 active torsions:
REMARK  status: ('A' for Active; 'I' for Inactive)
REMARK    1  A    between atoms: O_2  and  C_19 
REMARK       I    between atoms: N_3  and  C_9 
REMARK    2  A    between atoms: C_9  and  C_10 
REMARK    3  A    between atoms: C_10  and  C_11 
REMARK    4  A    between atoms: C_11  and  C_12 
REMARK    5  A    between atoms: C_12  and  C_13 
REMARK    6  A    between atoms: C_13  and  C_14 
ROOT
ATOM      1  C   UNL d   1       3.732   1.155   0.000  0.00  0.00     0.005 C 
ENDROOT
BRANCH   1   2
ATOM      2  C   UNL d   1       4.598   1.655   0.000  0.00  0.00     0.074 C 
BRANCH   2   3
ATOM      3  C   UNL d   1       4.598   2.655   0.000  0.00  0.00     0.243 C 
ATOM      4  O   UNL d   1       3.732   3.155   0.000  0.00  0.00    -0.268 OA
ATOM      5  N   UNL d   1       5.464   3.155   0.000  0.00  0.00    -0.349 N 
ATOM      6  C   UNL d   1       5.464   4.155   0.000  0.00  0.00     0.126 A 
ATOM      7  C   UNL d   1       6.330   2.655   0.000  0.00  0.00     0.126 A 
ATOM      8  C   UNL d   1       6.330   4.655   0.000  0.00  0.00     0.020 A 
ATOM      9  C   UNL d   1       7.196   4.155   0.000  0.00  0.00     0.003 A 
ATOM     10  C   UNL d   1       7.196   3.155   0.000  0.00  0.00     0.020 A 
ENDBRANCH   2   3
ENDBRANCH   1   2
BRANCH   1  11
ATOM     11  C   UNL d   1       3.732   0.155   0.000  0.00  0.00     0.001 C 
BRANCH  11  12
ATOM     12  C   UNL d   1       2.866  -0.345   0.000  0.00  0.00     0.011 C 
BRANCH  12  13
ATOM     13  C   UNL d   1       2.866  -1.345   0.000  0.00  0.00    -0.036 A 
ATOM     14  C   UNL d   1       2.000  -1.845   0.000  0.00  0.00     0.014 A 
ATOM     15  C   UNL d   1       2.000  -2.845   0.000  0.00  0.00     0.037 A 
ATOM     16  C   UNL d   1       2.866  -3.345   0.000  0.00  0.00     0.065 A 
ATOM     17  C   UNL d   1       3.732  -2.845   0.000  0.00  0.00     0.037 A 
ATOM     18  C   UNL d   1       3.732  -1.845   0.000  0.00  0.00     0.014 A 
BRANCH  16  19
ATOM     19  O   UNL d   1       2.866  -4.345   0.000  0.00  0.00    -0.361 OA
ATOM     20  H   UNL d   1       2.329  -4.655   0.000  0.00  0.00     0.217 HD
ENDBRANCH  16  19
ENDBRANCH  12  13
ENDBRANCH  11  12
ENDBRANCH   1  11
TORSDOF 6
