REMARK  0 active torsions:
REMARK  status: ('A' for Active; 'I' for Inactive)
ROOT
ATOM      1  N   UNL d   1       5.913  -1.295   0.000  0.00  0.00    -0.420 N 
ATOM      2  C   UNL d   1       3.863  -0.989   0.000  0.00  0.00    -0.021 A 
ATOM      3  C   UNL d   1       4.341   0.960   0.000  0.00  0.00    -0.034 A 
ATOM      4  C   UNL d   1       3.604  -0.023   0.000  0.00  0.00     0.011 A 
ATOM      5  C   UNL d   1       2.464  -1.497   0.000  0.00  0.00     0.012 A 
ATOM      6  C   UNL d   1       2.206  -0.531   0.000  0.00  0.00     0.008 A 
ATOM      7  C   UNL d   1       5.084  -1.854   0.000  0.00  0.00     0.123 A 
ATOM      8  C   UNL d   1       5.638  -0.334   0.000  0.00  0.00     0.119 A 
ATOM      9  C   UNL d   1       4.122  -1.954   0.000  0.00  0.00     0.018 C 
ATOM     10  C   UNL d   1       4.237   1.954   0.000  0.00  0.00     0.016 C 
ATOM     11  C   UNL d   1       5.255   1.367   0.000  0.00  0.00     0.016 C 
ATOM     12  H   UNL d   1       6.496  -1.507   0.000  0.00  0.00     0.153 HD
ENDROOT
TORSDOF 0
