REMARK  1 active torsions:
REMARK  status: ('A' for Active; 'I' for Inactive)
REMARK    1  A    between atoms: O_1  and  C_5 
ROOT
ATOM      1  C   UNL d   1       2.982   0.222   0.000  0.00  0.00    -0.013 A 
ATOM      2  C   UNL d   1       4.955   0.840   0.000  0.00  0.00    -0.003 A 
ATOM      3  C   UNL d   1       4.696  -0.126   0.000  0.00  0.00     0.021 A 
ATOM      4  C   UNL d   1       3.324  -0.718   0.000  0.00  0.00     0.065 A 
ATOM      5  C   UNL d   1       4.219   1.823   0.000  0.00  0.00     0.013 A 
ATOM      6  C   UNL d   1       6.354   0.331   0.000  0.00  0.00     0.006 A 
ATOM      7  C   UNL d   1       6.095  -0.635   0.000  0.00  0.00     0.008 A 
ATOM      8  C   UNL d   1       2.497   1.096   0.000  0.00  0.00     0.018 C 
ATOM      9  C   UNL d   1       2.000   0.031   0.000  0.00  0.00     0.018 C 
ATOM     10  C   UNL d   1       3.514  -1.700   0.000  0.00  0.00     0.047 C 
ENDROOT
BRANCH   4  11
ATOM     11  O   UNL d   1       2.449  -1.203   0.000  0.00  0.00    -0.389 OA
ATOM     12  H   UNL d   1       2.438  -1.823   0.000  0.00  0.00     0.210 HD
ENDBRANCH   4  11
TORSDOF 1
