REMARK  4 active torsions:
REMARK  status: ('A' for Active; 'I' for Inactive)
REMARK    1  A    between atoms: O_1  and  C_13 
REMARK    2  A    between atoms: O_4  and  C_16 
REMARK    3  A    between atoms: O_5  and  C_18 
REMARK    4  A    between atoms: C_14  and  C_18 
ROOT
ATOM      1  O   UNL d   1       4.666   1.825   0.000  0.00  0.00    -0.286 OA
ATOM      2  O   UNL d   1       4.666  -2.175   0.000  0.00  0.00    -0.287 OA
ATOM      3  C   UNL d   1       5.532  -0.675   0.000  0.00  0.00     0.032 A 
ATOM      4  C   UNL d   1       5.532   0.325   0.000  0.00  0.00     0.062 A 
ATOM      5  C   UNL d   1       3.800   0.325   0.000  0.00  0.00     0.062 A 
ATOM      6  C   UNL d   1       3.800  -0.675   0.000  0.00  0.00     0.032 A 
ATOM      7  C   UNL d   1       4.666   0.825   0.000  0.00  0.00     0.199 A 
ATOM      8  C   UNL d   1       4.666  -1.175   0.000  0.00  0.00     0.194 A 
ATOM      9  C   UNL d   1       6.426  -1.210   0.000  0.00  0.00     0.026 A 
ATOM     10  C   UNL d   1       6.426   0.859   0.000  0.00  0.00     0.081 A 
ATOM     11  C   UNL d   1       7.332  -0.696   0.000  0.00  0.00    -0.031 A 
ATOM     12  C   UNL d   1       7.332   0.345   0.000  0.00  0.00     0.046 A 
ATOM     13  C   UNL d   1       2.906   0.859   0.000  0.00  0.00     0.080 A 
ATOM     14  C   UNL d   1       2.906  -1.210   0.000  0.00  0.00     0.017 A 
ATOM     15  C   UNL d   1       2.000   0.345   0.000  0.00  0.00     0.037 A 
ATOM     16  C   UNL d   1       2.000  -0.696   0.000  0.00  0.00     0.004 A 
ENDROOT
BRANCH  11  17
ATOM     17  C   UNL d   1       8.196  -1.200   0.000  0.00  0.00     0.203 C 
BRANCH  17  18
ATOM     18  O   UNL d   1       9.064  -0.703   0.000  0.00  0.00    -0.396 OA
ATOM     19  H   UNL d   1       9.600  -1.015   0.000  0.00  0.00     0.209 HD
ENDBRANCH  17  18
ENDBRANCH  11  17
BRANCH  10  20
ATOM     20  O   UNL d   1       6.414   1.859   0.000  0.00  0.00    -0.360 OA
ATOM     21  H   UNL d   1       6.948   2.175   0.000  0.00  0.00     0.217 HD
ENDBRANCH  10  20
BRANCH  13  22
ATOM     22  O   UNL d   1       2.918   1.859   0.000  0.00  0.00    -0.360 OA
ATOM     23  H   UNL d   1       2.384   2.175   0.000  0.00  0.00     0.217 HD
ENDBRANCH  13  22
TORSDOF 4
