REMARK  2 active torsions:
REMARK  status: ('A' for Active; 'I' for Inactive)
REMARK    1  A    between atoms: O_1  and  C_9 
REMARK    2  A    between atoms: C_2  and  C_3 
ROOT
ATOM      1  C   UNL d   1       4.269   0.750   0.000  0.00  0.00    -0.052 A 
ATOM      2  C   UNL d   1       3.403   0.250   0.000  0.00  0.00     0.044 A 
ATOM      3  C   UNL d   1       5.135   0.250   0.000  0.00  0.00     0.008 A 
ATOM      4  C   UNL d   1       4.269  -1.250   0.000  0.00  0.00    -0.029 A 
ATOM      5  C   UNL d   1       3.403  -0.750   0.000  0.00  0.00     0.072 A 
ATOM      6  C   UNL d   1       5.135  -0.750   0.000  0.00  0.00     0.010 A 
ATOM      7  C   UNL d   1       4.269  -2.250   0.000  0.00  0.00     0.051 C 
ENDROOT
BRANCH   1   8
ATOM      8  C   UNL d   1       4.269   1.750   0.000  0.00  0.00     0.010 C 
ATOM      9  C   UNL d   1       5.135   2.250   0.000  0.00  0.00     0.015 C 
ATOM     10  C   UNL d   1       3.403   2.250   0.000  0.00  0.00     0.015 C 
ENDBRANCH   1   8
BRANCH   5  11
ATOM     11  O   UNL d   1       2.537  -1.250   0.000  0.00  0.00    -0.360 OA
ATOM     12  H   UNL d   1       2.000  -0.940   0.000  0.00  0.00     0.217 HD
ENDBRANCH   5  11
TORSDOF 2
