REMARK  8 active torsions:
REMARK  status: ('A' for Active; 'I' for Inactive)
REMARK    1  A    between atoms: C_3  and  C_4 
REMARK    2  A    between atoms: C_3  and  C_5 
REMARK    3  A    between atoms: C_4  and  C_6 
REMARK    4  A    between atoms: C_7  and  C_5 
REMARK    5  A    between atoms: C_6  and  C_8 
REMARK    6  A    between atoms: C_8  and  C_9 
REMARK    7  A    between atoms: C_9  and  C_11 
REMARK    8  A    between atoms: C_11  and  C_12 
ROOT
ATOM      1  C   UNL d   1       8.062  -0.500   0.000  0.00  0.00     0.002 C 
ENDROOT
BRANCH   1   2
ATOM      2  C   UNL d   1       7.196  -1.000   0.000  0.00  0.00     0.000 C 
BRANCH   2   3
ATOM      3  C   UNL d   1       6.330  -0.500   0.000  0.00  0.00     0.000 C 
BRANCH   3   4
ATOM      4  C   UNL d   1       5.464  -1.000   0.000  0.00  0.00     0.000 C 
BRANCH   4   5
ATOM      5  C   UNL d   1       4.598  -0.500   0.000  0.00  0.00     0.000 C 
BRANCH   5   6
ATOM      6  C   UNL d   1       3.732  -1.000   0.000  0.00  0.00    -0.000 C 
BRANCH   6   7
ATOM      7  C   UNL d   1       2.866  -0.500   0.000  0.00  0.00    -0.005 C 
ATOM      8  C   UNL d   1       2.000  -1.000   0.000  0.00  0.00     0.005 C 
ENDBRANCH   6   7
ENDBRANCH   5   6
ENDBRANCH   4   5
ENDBRANCH   3   4
ENDBRANCH   2   3
ENDBRANCH   1   2
BRANCH   1   9
ATOM      9  C   UNL d   1       8.928  -1.000   0.000  0.00  0.00     0.033 C 
BRANCH   9  10
ATOM     10  C   UNL d   1       9.794  -0.500   0.000  0.00  0.00     0.135 A 
ATOM     11  O   UNL d   1      10.660  -1.000   0.000  0.00  0.00    -0.312 OA
ATOM     12  C   UNL d   1      11.526  -0.500   0.000  0.00  0.00     0.282 A 
ATOM     13  O   UNL d   1      12.392  -1.000   0.000  0.00  0.00    -0.260 OA
ATOM     14  C   UNL d   1      11.526   0.500   0.000  0.00  0.00     0.078 A 
ATOM     15  C   UNL d   1      10.660   1.000   0.000  0.00  0.00    -0.018 A 
ATOM     16  C   UNL d   1       9.794   0.500   0.000  0.00  0.00     0.060 A 
ENDBRANCH   9  10
ENDBRANCH   1   9
TORSDOF 8
