REMARK  3 active torsions:
REMARK  status: ('A' for Active; 'I' for Inactive)
REMARK    1  A    between atoms: C_5  and  O_1 
REMARK    2  A    between atoms: C_6  and  O_2 
REMARK    3  A    between atoms: C_12  and  C_16 
ROOT
ATOM      1  O   UNL d   1       2.171   0.248   0.000  0.00  0.00    -0.288 OA
ATOM      2  C   UNL d   1       5.364  -0.236   0.000  0.00  0.00     0.063 A 
ATOM      3  C   UNL d   1       5.359   0.764   0.000  0.00  0.00     0.088 A 
ATOM      4  C   UNL d   1       6.312  -0.536   0.000  0.00  0.00     0.061 A 
ATOM      5  C   UNL d   1       6.304   1.073   0.000  0.00  0.00     0.046 A 
ATOM      6  C   UNL d   1       6.891   0.272   0.000  0.00  0.00     0.041 A 
ATOM      7  C   UNL d   1       4.585  -0.863   0.000  0.00  0.00     0.053 A 
ATOM      8  C   UNL d   1       4.574   1.384   0.000  0.00  0.00    -0.046 A 
ATOM      9  C   UNL d   1       6.009  -1.489   0.000  0.00  0.00     0.046 C 
ATOM     10  C   UNL d   1       3.609  -0.646   0.000  0.00  0.00    -0.006 A 
ATOM     11  C   UNL d   1       3.600   1.156   0.000  0.00  0.00     0.060 A 
ATOM     12  C   UNL d   1       4.792   2.360   0.000  0.00  0.00     0.046 C 
ATOM     13  C   UNL d   1       3.171   0.253   0.000  0.00  0.00     0.178 A 
ENDROOT
BRANCH   4  14
ATOM     14  O   UNL d   1       7.125  -1.118   0.000  0.00  0.00    -0.390 OA
ATOM     15  H   UNL d   1       7.689  -0.862   0.000  0.00  0.00     0.210 HD
ENDBRANCH   4  14
BRANCH   3  16
ATOM     16  O   UNL d   1       5.354   1.764   0.000  0.00  0.00    -0.385 OA
ATOM     17  H   UNL d   1       5.889   2.077   0.000  0.00  0.00     0.211 HD
ENDBRANCH   3  16
BRANCH  10  18
ATOM     18  C   UNL d   1       2.990  -1.431   0.000  0.00  0.00    -0.077 C 
ATOM     19  C   UNL d   1       3.360  -2.360   0.000  0.00  0.00     0.043 C 
ATOM     20  C   UNL d   1       2.000  -1.286   0.000  0.00  0.00     0.043 C 
ENDBRANCH  10  18
TORSDOF 3
