REMARK  6 active torsions:
REMARK  status: ('A' for Active; 'I' for Inactive)
REMARK    1  A    between atoms: C_22  and  O_1 
REMARK    2  A    between atoms: C_24  and  O_2 
REMARK    3  A    between atoms: O_3  and  C_30 
REMARK    4  A    between atoms: O_4  and  C_33 
REMARK    5  A    between atoms: C_14  and  C_30 
REMARK    6  A    between atoms: C_19  and  C_33 
ROOT
ATOM      1  C   UNL d   1       7.063  -0.404   0.000  0.00  0.00    -0.028 A 
ATOM      2  C   UNL d   1       6.197   0.096   0.000  0.00  0.00     0.007 A 
ATOM      3  C   UNL d   1       5.287  -0.411   0.000  0.00  0.00    -0.033 A 
ATOM      4  C   UNL d   1       7.929   0.096   0.000  0.00  0.00    -0.013 A 
ATOM      5  C   UNL d   1       5.279  -1.452   0.000  0.00  0.00     0.007 A 
ATOM      6  C   UNL d   1       7.079  -1.445   0.000  0.00  0.00     0.011 A 
ATOM      7  C   UNL d   1       7.929   1.096   0.000  0.00  0.00    -0.069 A 
ATOM      8  C   UNL d   1       6.181  -1.973   0.000  0.00  0.00     0.007 A 
ATOM      9  C   UNL d   1       4.343  -2.002   0.000  0.00  0.00     0.010 A 
ATOM     10  C   UNL d   1       8.823   1.631   0.000  0.00  0.00     0.038 A 
ATOM     11  C   UNL d   1       6.197   1.096   0.000  0.00  0.00     0.033 A 
ATOM     12  C   UNL d   1       4.360   0.153   0.000  0.00  0.00     0.044 A 
ATOM     13  C   UNL d   1       8.823  -0.439   0.000  0.00  0.00     0.016 A 
ATOM     14  C   UNL d   1       9.729   1.117   0.000  0.00  0.00     0.053 A 
ATOM     15  C   UNL d   1       7.706  -1.170   0.000  0.00  0.00     0.016 C 
ATOM     16  C   UNL d   1       9.729   0.075   0.000  0.00  0.00     0.022 A 
ATOM     17  C   UNL d   1       3.404  -1.460   0.000  0.00  0.00     0.157 A 
ATOM     18  C   UNL d   1       7.063   1.596   0.000  0.00  0.00    -0.022 A 
ATOM     19  C   UNL d   1       3.412  -0.375   0.000  0.00  0.00     0.148 A 
ATOM     20  C   UNL d   1       5.295   0.589   0.000  0.00  0.00     0.016 C 
ATOM     21  C   UNL d   1       8.271  -0.844   0.000  0.00  0.00     0.021 C 
ATOM     22  C   UNL d   1       8.798   2.715   0.000  0.00  0.00    -0.005 A 
ATOM     23  C   UNL d   1      10.673   1.652   0.000  0.00  0.00     0.021 A 
ATOM     24  C   UNL d   1       9.729   3.272   0.000  0.00  0.00    -0.014 A 
ATOM     25  C   UNL d   1       4.847  -2.866   0.000  0.00  0.00     0.020 C 
ATOM     26  C   UNL d   1      10.673   2.737   0.000  0.00  0.00     0.006 A 
ATOM     27  C   UNL d   1       7.922   3.199   0.000  0.00  0.00     0.011 C 
ATOM     28  C   UNL d   1       9.717   4.272   0.000  0.00  0.00     0.010 C 
ENDROOT
BRANCH   9  29
ATOM     29  C   UNL d   1       3.847  -2.870   0.000  0.00  0.00     0.176 C 
BRANCH  29  30
ATOM     30  O   UNL d   1       4.350  -3.734   0.000  0.00  0.00    -0.400 OA
ATOM     31  H   UNL d   1       4.042  -4.272   0.000  0.00  0.00     0.209 HD
ENDBRANCH  29  30
ENDBRANCH   9  29
BRANCH  17  32
ATOM     32  O   UNL d   1       2.536  -1.956   0.000  0.00  0.00    -0.392 OA
ATOM     33  H   UNL d   1       2.000  -1.644   0.000  0.00  0.00     0.210 HD
ENDBRANCH  17  32
BRANCH  19  34
ATOM     34  O   UNL d   1       2.552   0.135   0.000  0.00  0.00    -0.393 OA
ATOM     35  H   UNL d   1       2.559   0.755   0.000  0.00  0.00     0.210 HD
ENDBRANCH  19  34
BRANCH  14  36
ATOM     36  C   UNL d   1      10.599   0.624   0.000  0.00  0.00     0.149 C 
ATOM     37  O   UNL d   1      10.606  -0.376   0.000  0.00  0.00    -0.649 OA
BRANCH  36  38
ATOM     38  O   UNL d   1      11.461   1.130   0.000  0.00  0.00    -0.776 OA
ATOM     39  H   UNL d   1      12.000   0.824   0.000  0.00  0.00     0.167 HD
ENDBRANCH  36  38
ENDBRANCH  14  36
TORSDOF 6
