REMARK  5 active torsions:
REMARK  status: ('A' for Active; 'I' for Inactive)
REMARK    1  A    between atoms: C_6  and  C_13 
REMARK    2  A    between atoms: C_13  and  C_19 
REMARK    3  A    between atoms: C_19  and  C_24 
REMARK    4  A    between atoms: C_24  and  C_25 
REMARK    5  A    between atoms: C_25  and  C_26 
ROOT
ATOM      1  O   UNL d   1       2.000  -3.660   0.000  0.00  0.00    -0.293 OA
ATOM      2  C   UNL d   1       7.393  -0.607   0.000  0.00  0.00    -0.036 A 
ATOM      3  C   UNL d   1       7.393  -1.607   0.000  0.00  0.00    -0.002 A 
ATOM      4  C   UNL d   1       6.527  -2.107   0.000  0.00  0.00    -0.004 A 
ATOM      5  C   UNL d   1       5.661  -1.607   0.000  0.00  0.00     0.002 A 
ATOM      6  C   UNL d   1       8.339  -0.303   0.000  0.00  0.00    -0.002 A 
ATOM      7  C   UNL d   1       6.527  -0.107   0.000  0.00  0.00     0.010 A 
ATOM      8  C   UNL d   1       8.339  -1.912   0.000  0.00  0.00     0.006 A 
ATOM      9  C   UNL d   1       4.751  -2.114   0.000  0.00  0.00    -0.016 A 
ATOM     10  C   UNL d   1       5.661  -0.607   0.000  0.00  0.00     0.007 A 
ATOM     11  C   UNL d   1       8.923  -1.107   0.000  0.00  0.00     0.006 A 
ATOM     12  C   UNL d   1       6.543  -3.149   0.000  0.00  0.00     0.010 A 
ATOM     13  C   UNL d   1       7.393   0.393   0.000  0.00  0.00     0.016 C 
ATOM     14  C   UNL d   1       4.743  -3.156   0.000  0.00  0.00    -0.068 A 
ATOM     15  C   UNL d   1       5.645  -3.677   0.000  0.00  0.00     0.035 A 
ATOM     16  C   UNL d   1       3.824  -1.550   0.000  0.00  0.00     0.022 A 
ATOM     17  C   UNL d   1       4.759  -1.114   0.000  0.00  0.00     0.020 C 
ATOM     18  C   UNL d   1       2.876  -2.078   0.000  0.00  0.00     0.084 A 
ATOM     19  C   UNL d   1       3.808  -3.706   0.000  0.00  0.00     0.053 A 
ATOM     20  C   UNL d   1       2.868  -3.163   0.000  0.00  0.00     0.149 A 
ENDROOT
BRANCH   6  21
ATOM     21  C   UNL d   1       8.650   0.648   0.000  0.00  0.00    -0.014 C 
ATOM     22  C   UNL d   1       7.982   1.392   0.000  0.00  0.00     0.010 C 
BRANCH  21  23
ATOM     23  C   UNL d   1       9.629   0.854   0.000  0.00  0.00     0.005 C 
BRANCH  23  24
ATOM     24  C   UNL d   1       9.939   1.805   0.000  0.00  0.00     0.005 C 
BRANCH  24  25
ATOM     25  C   UNL d   1      10.918   2.011   0.000  0.00  0.00    -0.015 C 
ATOM     26  C   UNL d   1      11.585   1.266   0.000  0.00  0.00     0.010 C 
BRANCH  25  27
ATOM     27  C   UNL d   1      11.228   2.961   0.000  0.00  0.00    -0.019 C 
ATOM     28  C   UNL d   1      12.207   3.167   0.000  0.00  0.00     0.010 C 
ATOM     29  C   UNL d   1      10.560   3.706   0.000  0.00  0.00     0.010 C 
ENDBRANCH  25  27
ENDBRANCH  24  25
ENDBRANCH  23  24
ENDBRANCH  21  23
ENDBRANCH   6  21
TORSDOF 5
