REMARK  6 active torsions:
REMARK  status: ('A' for Active; 'I' for Inactive)
REMARK    1  A    between atoms: O_2  and  C_7 
REMARK    2  A    between atoms: O_3  and  C_13 
REMARK    3  A    between atoms: O_4  and  C_18 
REMARK    4  A    between atoms: O_5  and  C_19 
REMARK    5  A    between atoms: O_6  and  C_21 
REMARK    6  A    between atoms: C_8  and  C_12 
ROOT
ATOM      1  O   UNL d   1       6.068  -0.270   0.000  0.00  0.00    -0.338 OA
ATOM      2  C   UNL d   1       6.934   1.230   0.000  0.00  0.00     0.156 A 
ATOM      3  C   UNL d   1       6.934   0.230   0.000  0.00  0.00     0.191 A 
ATOM      4  C   UNL d   1       6.068   1.730   0.000  0.00  0.00     0.079 A 
ATOM      5  C   UNL d   1       5.202   1.230   0.000  0.00  0.00     0.011 A 
ATOM      6  C   UNL d   1       5.202   0.230   0.000  0.00  0.00     0.081 A 
ATOM      7  C   UNL d   1       4.308   1.764   0.000  0.00  0.00     0.077 A 
ATOM      8  C   UNL d   1       4.308  -0.305   0.000  0.00  0.00     0.074 A 
ATOM      9  C   UNL d   1       3.402   1.250   0.000  0.00  0.00     0.073 A 
ATOM     10  C   UNL d   1       3.402   0.209   0.000  0.00  0.00     0.071 A 
ENDROOT
BRANCH   3  11
ATOM     11  C   UNL d   1       7.800  -0.270   0.000  0.00  0.00    -0.024 A 
ATOM     12  C   UNL d   1       7.800  -1.270   0.000  0.00  0.00     0.049 A 
ATOM     13  C   UNL d   1       8.666  -1.770   0.000  0.00  0.00     0.099 A 
ATOM     14  C   UNL d   1       9.532  -1.270   0.000  0.00  0.00     0.098 A 
ATOM     15  C   UNL d   1       9.532  -0.270   0.000  0.00  0.00     0.040 A 
ATOM     16  C   UNL d   1       8.666   0.230   0.000  0.00  0.00     0.013 A 
BRANCH  13  17
ATOM     17  O   UNL d   1       8.666  -2.770   0.000  0.00  0.00    -0.358 OA
ATOM     18  H   UNL d   1       8.129  -3.080   0.000  0.00  0.00     0.217 HD
ENDBRANCH  13  17
BRANCH  14  19
ATOM     19  O   UNL d   1      10.398  -1.770   0.000  0.00  0.00    -0.358 OA
ATOM     20  H   UNL d   1      10.935  -1.460   0.000  0.00  0.00     0.217 HD
ENDBRANCH  14  19
ENDBRANCH   3  11
BRANCH   2  21
ATOM     21  O   UNL d   1       7.800   1.730   0.000  0.00  0.00    -0.392 OA
ATOM     22  H   UNL d   1       7.800   2.350   0.000  0.00  0.00     0.210 HD
ENDBRANCH   2  21
BRANCH   7  23
ATOM     23  O   UNL d   1       4.320   2.764   0.000  0.00  0.00    -0.360 OA
ATOM     24  H   UNL d   1       3.787   3.080   0.000  0.00  0.00     0.217 HD
ENDBRANCH   7  23
BRANCH  10  25
ATOM     25  O   UNL d   1       2.538  -0.294   0.000  0.00  0.00    -0.361 OA
ATOM     26  H   UNL d   1       2.000   0.013   0.000  0.00  0.00     0.217 HD
ENDBRANCH  10  25
TORSDOF 6
