REMARK  1 active torsions:
REMARK  status: ('A' for Active; 'I' for Inactive)
REMARK    1  A    between atoms: C_2  and  C_5 
ROOT
ATOM      1  C   UNL d   1       3.732  -0.250   0.000  0.00  0.00     0.021 A 
ATOM      2  C   UNL d   1       2.866  -0.750   0.000  0.00  0.00    -0.003 A 
ATOM      3  C   UNL d   1       3.732   0.750   0.000  0.00  0.00     0.022 A 
ATOM      4  C   UNL d   1       2.000  -0.250   0.000  0.00  0.00     0.010 A 
ATOM      5  C   UNL d   1       4.626   1.285   0.000  0.00  0.00     0.014 A 
ATOM      6  C   UNL d   1       2.866   1.250   0.000  0.00  0.00    -0.084 A 
ATOM      7  C   UNL d   1       2.000   0.750   0.000  0.00  0.00     0.034 A 
ATOM      8  C   UNL d   1       4.626  -0.785   0.000  0.00  0.00    -0.019 A 
ATOM      9  C   UNL d   1       5.532   0.771   0.000  0.00  0.00     0.034 A 
ATOM     10  C   UNL d   1       5.532  -0.271   0.000  0.00  0.00    -0.087 A 
ATOM     11  C   UNL d   1       2.866   2.250   0.000  0.00  0.00     0.014 C 
ATOM     12  C   UNL d   1       6.396  -0.774   0.000  0.00  0.00     0.043 C 
ENDROOT
BRANCH   2  13
ATOM     13  C   UNL d   1       2.866  -1.750   0.000  0.00  0.00    -0.018 C 
ATOM     14  C   UNL d   1       2.000  -2.250   0.000  0.00  0.00     0.010 C 
ATOM     15  C   UNL d   1       3.732  -2.250   0.000  0.00  0.00     0.010 C 
ENDBRANCH   2  13
TORSDOF 1
