REMARK  6 active torsions:
REMARK  status: ('A' for Active; 'I' for Inactive)
REMARK    1  A    between atoms: O_1  and  C_12 
REMARK    2  A    between atoms: O_1  and  C_13 
REMARK    3  A    between atoms: O_2  and  C_9 
REMARK    4  A    between atoms: O_3  and  C_10 
REMARK    5  A    between atoms: O_4  and  C_11 
REMARK    6  A    between atoms: C_6  and  C_12 
ROOT
ATOM      1  C   UNL d   1       4.269  -0.155   0.000  0.00  0.00     0.044 A 
ATOM      2  C   UNL d   1       5.135   0.345   0.000  0.00  0.00     0.057 A 
ATOM      3  C   UNL d   1       3.403   0.345   0.000  0.00  0.00     0.057 A 
ATOM      4  C   UNL d   1       3.403   1.345   0.000  0.00  0.00     0.102 A 
ATOM      5  C   UNL d   1       5.135   1.345   0.000  0.00  0.00     0.102 A 
ATOM      6  C   UNL d   1       4.269   1.845   0.000  0.00  0.00     0.132 A 
ENDROOT
BRANCH   1   7
ATOM      7  C   UNL d   1       4.269  -1.155   0.000  0.00  0.00     0.293 C 
ATOM      8  O   UNL d   1       5.135  -1.655   0.000  0.00  0.00    -0.259 OA
BRANCH   7   9
ATOM      9  O   UNL d   1       3.403  -1.655   0.000  0.00  0.00    -0.318 OA
BRANCH   9  10
ATOM     10  C   UNL d   1       3.403  -2.655   0.000  0.00  0.00     0.174 C 
ATOM     11  C   UNL d   1       2.537  -3.155   0.000  0.00  0.00     0.034 C 
ENDBRANCH   9  10
ENDBRANCH   7   9
ENDBRANCH   1   7
BRANCH   5  12
ATOM     12  O   UNL d   1       6.001   1.845   0.000  0.00  0.00    -0.358 OA
ATOM     13  H   UNL d   1       6.538   1.535   0.000  0.00  0.00     0.217 HD
ENDBRANCH   5  12
BRANCH   4  14
ATOM     14  O   UNL d   1       2.537   1.845   0.000  0.00  0.00    -0.358 OA
ATOM     15  H   UNL d   1       2.000   1.535   0.000  0.00  0.00     0.217 HD
ENDBRANCH   4  14
BRANCH   6  16
ATOM     16  O   UNL d   1       4.269   2.845   0.000  0.00  0.00    -0.356 OA
ATOM     17  H   UNL d   1       4.806   3.155   0.000  0.00  0.00     0.218 HD
ENDBRANCH   6  16
TORSDOF 6
