REMARK  8 active torsions:
REMARK  status: ('A' for Active; 'I' for Inactive)
REMARK    1  A    between atoms: O_1  and  C_6 
REMARK    2  A    between atoms: O_2  and  C_9 
REMARK    3  A    between atoms: O_2  and  C_15 
REMARK    4  A    between atoms: N_4  and  C_8 
REMARK    5  A    between atoms: C_6  and  C_7 
REMARK    6  A    between atoms: C_6  and  C_8 
REMARK    7  A    between atoms: C_6  and  C_9 
REMARK    8  A    between atoms: C_7  and  C_12 
ROOT
ATOM      1  C   UNL d   1       4.702  -1.017   0.000  0.00  0.00     0.109 C 
ENDROOT
BRANCH   1   2
ATOM      2  O   UNL d   1       5.702  -1.017   0.000  0.00  0.00    -0.385 OA
ATOM      3  H   UNL d   1       6.012  -0.480   0.000  0.00  0.00     0.210 HD
ENDBRANCH   1   2
BRANCH   1   4
ATOM      4  C   UNL d   1       4.702  -2.017   0.000  0.00  0.00     0.040 C 
ATOM      5  C   UNL d   1       5.702  -2.017   0.000  0.00  0.00     0.025 C 
ATOM      6  C   UNL d   1       3.702  -2.017   0.000  0.00  0.00     0.025 C 
BRANCH   4   7
ATOM      7  C   UNL d   1       4.702  -3.017   0.000  0.00  0.00     0.243 C 
ATOM      8  O   UNL d   1       5.569  -3.517   0.000  0.00  0.00    -0.306 OA
ENDBRANCH   4   7
ENDBRANCH   1   4
BRANCH   1   9
ATOM      9  C   UNL d   1       3.702  -1.017   0.000  0.00  0.00     0.170 C 
BRANCH   9  10
ATOM     10  N   UNL d   1       3.202  -0.151   0.000  0.00  0.00    -0.347 N 
ATOM     11  C   UNL d   1       2.208  -0.047   0.000  0.00  0.00     0.111 A 
ATOM     12  C   UNL d   1       2.000   0.931   0.000  0.00  0.00     0.135 A 
ATOM     13  N   UNL d   1       2.866   1.431   0.000  0.00  0.00    -0.255 NA
ATOM     14  C   UNL d   1       3.609   0.762   0.000  0.00  0.00     0.209 A 
ENDBRANCH   9  10
ENDBRANCH   1   9
BRANCH   1  15
ATOM     15  C   UNL d   1       4.702  -0.017   0.000  0.00  0.00     0.216 C 
BRANCH  15  16
ATOM     16  O   UNL d   1       5.569   0.483   0.000  0.00  0.00    -0.347 OA
BRANCH  16  17
ATOM     17  C   UNL d   1       5.569   1.483   0.000  0.00  0.00     0.080 A 
ATOM     18  C   UNL d   1       6.434   1.983   0.000  0.00  0.00     0.007 A 
ATOM     19  C   UNL d   1       6.434   2.983   0.000  0.00  0.00    -0.023 A 
ATOM     20  C   UNL d   1       7.328   1.448   0.000  0.00  0.00     0.015 A 
ATOM     21  C   UNL d   1       5.569   3.483   0.000  0.00  0.00     0.012 A 
ATOM     22  C   UNL d   1       7.328   3.517   0.000  0.00  0.00     0.012 A 
ATOM     23  C   UNL d   1       4.702   2.983   0.000  0.00  0.00     0.004 A 
ATOM     24  C   UNL d   1       4.702   1.983   0.000  0.00  0.00     0.037 A 
ATOM     25  C   UNL d   1       8.235   3.003   0.000  0.00  0.00     0.001 A 
ATOM     26  C   UNL d   1       8.235   1.962   0.000  0.00  0.00     0.001 A 
ENDBRANCH  16  17
ENDBRANCH  15  16
ENDBRANCH   1  15
TORSDOF 8
