REMARK  20 active torsions:
REMARK  status: ('A' for Active; 'I' for Inactive)
REMARK    1  A    between atoms: O_4  and  C_30 
REMARK    2  A    between atoms: O_5  and  C_32 
REMARK    3  A    between atoms: O_5  and  C_48 
REMARK    4  A    between atoms: O_7  and  C_36 
REMARK    5  A    between atoms: O_9  and  C_39 
REMARK    6  A    between atoms: O_10  and  C_42 
REMARK    7  A    between atoms: O_12  and  C_44 
REMARK    8  A    between atoms: O_14  and  C_47 
REMARK    9  A    between atoms: O_15  and  C_49 
REMARK   10  A    between atoms: O_18  and  C_56 
REMARK   11  A    between atoms: O_19  and  C_57 
REMARK   12  A    between atoms: O_20  and  C_58 
REMARK   13  A    between atoms: O_21  and  C_60 
REMARK   14  A    between atoms: O_22  and  C_61 
REMARK   15  A    between atoms: O_23  and  C_64 
REMARK   16  A    between atoms: O_24  and  C_65 
REMARK   17  A    between atoms: O_25  and  C_66 
REMARK   18  A    between atoms: O_26  and  C_67 
REMARK   19  A    between atoms: C_28  and  C_29 
REMARK   20  A    between atoms: C_48  and  C_55 
ROOT
ATOM      1  O   UNL d   1       7.460   0.770   0.000  0.00  0.00    -0.306 OA
ATOM      2  O   UNL d   1       6.152   0.049   0.000  0.00  0.00    -0.315 OA
ATOM      3  O   UNL d   1       5.814   0.404   0.000  0.00  0.00    -0.259 OA
ATOM      4  O   UNL d   1       5.752   1.913   0.000  0.00  0.00    -0.259 OA
ATOM      5  C   UNL d   1       7.635  -0.215   0.000  0.00  0.00     0.196 A 
ATOM      6  C   UNL d   1       7.062  -1.034   0.000  0.00  0.00     0.188 A 
ATOM      7  C   UNL d   1       6.066  -0.948   0.000  0.00  0.00     0.214 A 
ATOM      8  C   UNL d   1       6.520   1.111   0.000  0.00  0.00     0.294 A 
ATOM      9  C   UNL d   1       6.862   2.051   0.000  0.00  0.00     0.056 A 
ATOM     10  C   UNL d   1       6.218   2.817   0.000  0.00  0.00     0.030 A 
ATOM     11  C   UNL d   1       5.536   0.937   0.000  0.00  0.00     0.294 A 
ATOM     12  C   UNL d   1       5.234   2.643   0.000  0.00  0.00     0.030 A 
ATOM     13  C   UNL d   1       4.892   1.703   0.000  0.00  0.00     0.056 A 
ATOM     14  C   UNL d   1       7.890   2.217   0.000  0.00  0.00     0.058 A 
ATOM     15  C   UNL d   1       6.559   3.801   0.000  0.00  0.00     0.114 A 
ATOM     16  C   UNL d   1       4.576   3.450   0.000  0.00  0.00     0.114 A 
ATOM     17  C   UNL d   1       8.253   3.193   0.000  0.00  0.00     0.102 A 
ATOM     18  C   UNL d   1       3.870   1.505   0.000  0.00  0.00     0.058 A 
ATOM     19  C   UNL d   1       7.583   3.991   0.000  0.00  0.00     0.133 A 
ATOM     20  C   UNL d   1       3.549   3.276   0.000  0.00  0.00     0.133 A 
ATOM     21  C   UNL d   1       3.193   2.297   0.000  0.00  0.00     0.102 A 
ENDROOT
BRANCH   5  22
ATOM     22  C   UNL d   1       8.611  -0.430   0.000  0.00  0.00     0.196 A 
ATOM     23  O   UNL d   1       8.713  -1.439   0.000  0.00  0.00    -0.306 OA
ATOM     24  C   UNL d   1       9.393  -2.192   0.000  0.00  0.00     0.294 A 
ATOM     25  O   UNL d   1       8.897  -3.060   0.000  0.00  0.00    -0.259 OA
ATOM     26  C   UNL d   1      10.386  -2.394   0.000  0.00  0.00     0.056 A 
ATOM     27  C   UNL d   1      11.306  -1.968   0.000  0.00  0.00     0.030 A 
ATOM     28  C   UNL d   1      10.324  -3.345   0.000  0.00  0.00     0.058 A 
ATOM     29  C   UNL d   1      11.794  -1.079   0.000  0.00  0.00     0.031 A 
ATOM     30  C   UNL d   1      12.072  -2.535   0.000  0.00  0.00     0.114 A 
ATOM     31  C   UNL d   1      10.928  -0.579   0.000  0.00  0.00     0.065 A 
ATOM     32  C   UNL d   1      12.660  -0.579   0.000  0.00  0.00     0.114 A 
ATOM     33  C   UNL d   1      10.928   0.421   0.000  0.00  0.00     0.026 A 
ATOM     34  C   UNL d   1      10.034  -1.113   0.000  0.00  0.00     0.295 A 
ATOM     35  C   UNL d   1      10.034   0.956   0.000  0.00  0.00     0.187 A 
ATOM     36  C   UNL d   1      11.794   0.921   0.000  0.00  0.00     0.111 A 
ATOM     37  C   UNL d   1       9.128   0.442   0.000  0.00  0.00     0.197 A 
ATOM     38  O   UNL d   1       9.128  -0.600   0.000  0.00  0.00    -0.306 OA
ATOM     39  C   UNL d   1      12.660   0.421   0.000  0.00  0.00     0.134 A 
ATOM     40  O   UNL d   1      11.021  -1.276   0.000  0.00  0.00    -0.259 OA
ATOM     41  C   UNL d   1      11.975  -3.483   0.000  0.00  0.00     0.133 A 
ATOM     42  C   UNL d   1      11.110  -3.884   0.000  0.00  0.00     0.102 A 
BRANCH  35  43
ATOM     43  O   UNL d   1      10.046   1.956   0.000  0.00  0.00    -0.388 OA
ATOM     44  H   UNL d   1      10.586   2.260   0.000  0.00  0.00     0.210 HD
ENDBRANCH  35  43
BRANCH  36  45
ATOM     45  O   UNL d   1      11.794   1.921   0.000  0.00  0.00    -0.357 OA
ATOM     46  H   UNL d   1      12.331   2.231   0.000  0.00  0.00     0.217 HD
ENDBRANCH  36  45
BRANCH  39  47
ATOM     47  O   UNL d   1      13.526   0.921   0.000  0.00  0.00    -0.356 OA
ATOM     48  H   UNL d   1      13.526   1.541   0.000  0.00  0.00     0.218 HD
ENDBRANCH  39  47
BRANCH  32  49
ATOM     49  O   UNL d   1      13.526  -1.079   0.000  0.00  0.00    -0.357 OA
ATOM     50  H   UNL d   1      14.063  -0.769   0.000  0.00  0.00     0.217 HD
ENDBRANCH  32  49
BRANCH  30  51
ATOM     51  O   UNL d   1      12.987  -2.131   0.000  0.00  0.00    -0.357 OA
ATOM     52  H   UNL d   1      13.487  -2.498   0.000  0.00  0.00     0.217 HD
ENDBRANCH  30  51
BRANCH  41  53
ATOM     53  O   UNL d   1      12.789  -4.064   0.000  0.00  0.00    -0.356 OA
ATOM     54  H   UNL d   1      12.730  -4.681   0.000  0.00  0.00     0.218 HD
ENDBRANCH  41  53
BRANCH  42  55
ATOM     55  O   UNL d   1      11.027  -4.880   0.000  0.00  0.00    -0.358 OA
ATOM     56  H   UNL d   1      10.466  -5.145   0.000  0.00  0.00     0.217 HD
ENDBRANCH  42  55
ENDBRANCH   5  22
BRANCH   6  57
ATOM     57  O   UNL d   1       7.485  -1.940   0.000  0.00  0.00    -0.307 OA
BRANCH  57  58
ATOM     58  C   UNL d   1       6.912  -2.760   0.000  0.00  0.00     0.294 C 
ATOM     59  O   UNL d   1       7.335  -3.666   0.000  0.00  0.00    -0.259 OA
BRANCH  58  60
ATOM     60  C   UNL d   1       5.916  -2.673   0.000  0.00  0.00     0.045 A 
ATOM     61  C   UNL d   1       5.493  -1.767   0.000  0.00  0.00     0.057 A 
ATOM     62  C   UNL d   1       4.496  -1.681   0.000  0.00  0.00     0.102 A 
ATOM     63  C   UNL d   1       3.923  -2.501   0.000  0.00  0.00     0.132 A 
ATOM     64  C   UNL d   1       4.347  -3.406   0.000  0.00  0.00     0.102 A 
ATOM     65  C   UNL d   1       5.343  -3.493   0.000  0.00  0.00     0.057 A 
BRANCH  62  66
ATOM     66  O   UNL d   1       4.073  -0.775   0.000  0.00  0.00    -0.358 OA
ATOM     67  H   UNL d   1       3.455  -0.721   0.000  0.00  0.00     0.217 HD
ENDBRANCH  62  66
BRANCH  63  68
ATOM     68  O   UNL d   1       2.927  -2.414   0.000  0.00  0.00    -0.356 OA
ATOM     69  H   UNL d   1       2.572  -2.922   0.000  0.00  0.00     0.218 HD
ENDBRANCH  63  68
BRANCH  64  70
ATOM     70  O   UNL d   1       3.774  -4.226   0.000  0.00  0.00    -0.358 OA
ATOM     71  H   UNL d   1       4.036  -4.788   0.000  0.00  0.00     0.217 HD
ENDBRANCH  64  70
ENDBRANCH  58  60
ENDBRANCH  57  58
ENDBRANCH   6  57
BRANCH  15  72
ATOM     72  O   UNL d   1       5.907   4.559   0.000  0.00  0.00    -0.357 OA
ATOM     73  H   UNL d   1       6.112   5.145   0.000  0.00  0.00     0.217 HD
ENDBRANCH  15  72
BRANCH  17  74
ATOM     74  O   UNL d   1       9.239   3.364   0.000  0.00  0.00    -0.358 OA
ATOM     75  H   UNL d   1       9.452   3.946   0.000  0.00  0.00     0.217 HD
ENDBRANCH  17  74
BRANCH  16  76
ATOM     76  O   UNL d   1       4.928   4.386   0.000  0.00  0.00    -0.357 OA
ATOM     77  H   UNL d   1       4.535   4.865   0.000  0.00  0.00     0.217 HD
ENDBRANCH  16  76
BRANCH  19  78
ATOM     78  O   UNL d   1       7.921   4.932   0.000  0.00  0.00    -0.356 OA
ATOM     79  H   UNL d   1       8.531   5.043   0.000  0.00  0.00     0.218 HD
ENDBRANCH  19  78
BRANCH  20  80
ATOM     80  O   UNL d   1       2.909   4.045   0.000  0.00  0.00    -0.356 OA
ATOM     81  H   UNL d   1       2.298   3.939   0.000  0.00  0.00     0.218 HD
ENDBRANCH  20  80
BRANCH  21  82
ATOM     82  O   UNL d   1       2.209   2.119   0.000  0.00  0.00    -0.358 OA
ATOM     83  H   UNL d   1       2.000   1.536   0.000  0.00  0.00     0.217 HD
ENDBRANCH  21  82
TORSDOF 20
