REMARK  2 active torsions:
REMARK  status: ('A' for Active; 'I' for Inactive)
REMARK    1  A    between atoms: C_4  and  O_1 
REMARK    2  A    between atoms: C_11  and  C_13 
ROOT
ATOM      1  C   UNL d   1       5.374   0.249   0.000  0.00  0.00     0.050 A 
ATOM      2  C   UNL d   1       5.379  -0.751   0.000  0.00  0.00     0.024 A 
ATOM      3  C   UNL d   1       6.319   0.558   0.000  0.00  0.00     0.062 A 
ATOM      4  C   UNL d   1       6.327  -1.051   0.000  0.00  0.00     0.013 A 
ATOM      5  C   UNL d   1       6.907  -0.244   0.000  0.00  0.00     0.039 A 
ATOM      6  C   UNL d   1       4.601  -1.379   0.000  0.00  0.00    -0.084 A 
ATOM      7  C   UNL d   1       4.589   0.868   0.000  0.00  0.00    -0.015 A 
ATOM      8  C   UNL d   1       6.007   1.508   0.000  0.00  0.00     0.046 C 
ATOM      9  C   UNL d   1       3.624  -1.161   0.000  0.00  0.00     0.038 A 
ATOM     10  C   UNL d   1       3.615   0.641   0.000  0.00  0.00    -0.080 A 
ATOM     11  C   UNL d   1       3.186  -0.262   0.000  0.00  0.00     0.038 A 
ATOM     12  C   UNL d   1       4.828  -2.352   0.000  0.00  0.00     0.015 C 
ENDROOT
BRANCH   3  13
ATOM     13  O   UNL d   1       7.126   1.149   0.000  0.00  0.00    -0.390 OA
ATOM     14  H   UNL d   1       7.693   0.898   0.000  0.00  0.00     0.210 HD
ENDBRANCH   3  13
BRANCH  10  15
ATOM     15  C   UNL d   1       2.988   1.420   0.000  0.00  0.00     0.006 C 
ATOM     16  C   UNL d   1       2.000   1.266   0.000  0.00  0.00     0.014 C 
ATOM     17  C   UNL d   1       3.349   2.352   0.000  0.00  0.00     0.014 C 
ENDBRANCH  10  15
TORSDOF 2
