REMARK WARNING: 32 MAX_TORS EXCEEDED!!!
REMARK  75 active torsions:
REMARK  status: ('A' for Active; 'I' for Inactive)
REMARK    1  A    between atoms: O_2  and  C_108 
REMARK    2  A    between atoms: O_6  and  C_110 
REMARK    3  A    between atoms: O_7  and  C_110 
REMARK    4  A    between atoms: O_12  and  C_121 
REMARK    5  A    between atoms: O_12  and  C_148 
REMARK    6  A    between atoms: O_14  and  C_118 
REMARK    7  A    between atoms: O_15  and  C_118 
REMARK    8  A    between atoms: O_16  and  C_123 
REMARK    9  A    between atoms: O_21  and  C_130 
REMARK   10  A    between atoms: O_22  and  C_136 
REMARK   11  A    between atoms: O_22  and  C_154 
REMARK   12  A    between atoms: O_24  and  C_138 
REMARK   13  A    between atoms: O_28  and  C_144 
REMARK   14  A    between atoms: O_37  and  C_162 
REMARK   15  A    between atoms: O_38  and  C_166 
REMARK   16  A    between atoms: O_39  and  C_167 
REMARK   17  A    between atoms: O_42  and  C_169 
REMARK   18  A    between atoms: O_44  and  C_172 
REMARK   19  A    between atoms: O_46  and  C_176 
REMARK   20  A    between atoms: O_47  and  C_177 
REMARK   21  A    between atoms: O_51  and  C_178 
REMARK   22  A    between atoms: O_52  and  C_185 
REMARK   23  A    between atoms: O_52  and  C_215 
REMARK   24  A    between atoms: O_53  and  C_186 
REMARK   25  A    between atoms: O_53  and  C_216 
REMARK   26  A    between atoms: O_56  and  C_182 
REMARK   27  A    between atoms: O_57  and  C_188 
REMARK   28  A    between atoms: O_57  and  C_218 
REMARK   29  A    between atoms: O_59  and  C_189 
REMARK   30  A    between atoms: O_59  and  C_219 
REMARK   31  A    between atoms: O_61  and  C_192 
REMARK   32  A    between atoms: O_63  and  C_197 
REMARK   33  A    between atoms: O_64  and  C_199 
REMARK   34  A    between atoms: O_64  and  C_236 
REMARK   35  A    between atoms: O_65  and  C_198 
REMARK   36  A    between atoms: O_66  and  C_200 
REMARK   37  A    between atoms: O_66  and  C_238 
REMARK   38  A    between atoms: O_68  and  C_212 
REMARK   39  A    between atoms: O_69  and  C_213 
REMARK   40  A    between atoms: O_73  and  C_221 
REMARK   41  A    between atoms: O_75  and  C_222 
REMARK   42  A    between atoms: O_79  and  C_223 
REMARK   43  A    between atoms: O_80  and  C_224 
REMARK   44  A    between atoms: O_81  and  C_226 
REMARK   45  A    between atoms: O_82  and  C_228 
REMARK   46  A    between atoms: O_83  and  C_229 
REMARK   47  A    between atoms: O_84  and  C_232 
REMARK   48  A    between atoms: O_85  and  C_233 
REMARK   49  A    between atoms: O_86  and  C_237 
REMARK   50  A    between atoms: O_90  and  C_250 
REMARK   51  A    between atoms: O_91  and  C_251 
REMARK   52  A    between atoms: O_92  and  C_252 
REMARK   53  A    between atoms: O_94  and  C_254 
REMARK   54  A    between atoms: O_95  and  C_255 
REMARK   55  A    between atoms: O_96  and  C_256 
REMARK   56  A    between atoms: O_97  and  C_259 
REMARK   57  A    between atoms: O_98  and  C_260 
REMARK   58  A    between atoms: O_99  and  C_263 
REMARK   59  A    between atoms: O_100  and  C_264 
REMARK   60  A    between atoms: O_101  and  C_265 
REMARK   61  A    between atoms: O_102  and  C_266 
REMARK   62  A    between atoms: O_103  and  C_267 
REMARK   63  A    between atoms: O_104  and  C_268 
REMARK   64  A    between atoms: O_105  and  C_269 
REMARK   65  A    between atoms: O_106  and  C_270 
REMARK   66  A    between atoms: C_148  and  C_157 
REMARK   67  A    between atoms: C_154  and  C_164 
REMARK   68  A    between atoms: C_190  and  C_199 
REMARK   69  A    between atoms: C_193  and  C_200 
REMARK   70  A    between atoms: C_215  and  C_230 
REMARK   71  A    between atoms: C_216  and  C_231 
REMARK   72  A    between atoms: C_218  and  C_234 
REMARK   73  A    between atoms: C_219  and  C_235 
REMARK   74  A    between atoms: C_236  and  C_241 
REMARK   75  A    between atoms: C_238  and  C_244 
ROOT
ATOM      1  O   UNL d   2      22.177 -47.800   0.000  0.00  0.00    -0.302 OA
ATOM      2  O   UNL d   2      14.625 -36.350   0.000  0.00  0.00    -0.348 OA
ATOM      3  O   UNL d   2      19.500 -38.150   0.000  0.00  0.00    -0.317 OA
ATOM      4  O   UNL d   2      23.833 -37.800   0.000  0.00  0.00    -0.334 OA
ATOM      5  O   UNL d   2      22.750 -32.350   0.000  0.00  0.00    -0.337 OA
ATOM      6  O   UNL d   2      20.647 -48.150   0.000  0.00  0.00    -0.214 OA
ATOM      7  O   UNL d   2      14.083 -30.350   0.000  0.00  0.00    -0.345 OA
ATOM      8  O   UNL d   2      16.900 -42.150   0.000  0.00  0.00    -0.164 OA
ATOM      9  O   UNL d   2      22.100 -42.000   0.000  0.00  0.00    -0.190 OA
ATOM     10  O   UNL d   2      25.235 -48.350   0.000  0.00  0.00    -0.358 OA
ATOM     11  O   UNL d   2      24.917 -32.150   0.000  0.00  0.00    -0.190 OA
ATOM     12  O   UNL d   2      16.250 -30.150   0.000  0.00  0.00    -0.190 OA
ATOM     13  O   UNL d   2      14.625  -6.350   0.000  0.00  0.00    -0.348 OA
ATOM     14  O   UNL d   2      17.500 -20.350   0.000  0.00  0.00    -0.346 OA
ATOM     15  O   UNL d   2      13.650 -18.350   0.000  0.00  0.00    -0.331 OA
ATOM     16  O   UNL d   2      15.438 -12.150   0.000  0.00  0.00    -0.335 OA
ATOM     17  O   UNL d   2      13.929 -10.350   0.000  0.00  0.00    -0.314 OA
ATOM     18  O   UNL d   2      17.062 -15.800   0.000  0.00  0.00    -0.190 OA
ATOM     19  O   UNL d   2      13.812 -14.350   0.000  0.00  0.00    -0.190 OA
ATOM     20  C   UNL d   2      18.417 -43.800   0.000  0.00  0.00     0.124 A 
ATOM     21  C   UNL d   2      17.643 -45.800   0.000  0.00  0.00     0.234 A 
ATOM     22  C   UNL d   2      19.118 -48.350   0.000  0.00  0.00     0.268 A 
ATOM     23  C   UNL d   2      17.875 -36.150   0.000  0.00  0.00     0.194 A 
ATOM     24  C   UNL d   2      22.750 -44.350   0.000  0.00  0.00    -0.010 A 
ATOM     25  C   UNL d   2      24.375 -34.000   0.000  0.00  0.00     0.191 A 
ATOM     26  C   UNL d   2      19.500 -41.800   0.000  0.00  0.00     0.016 A 
ATOM     27  C   UNL d   2      24.375 -36.000   0.000  0.00  0.00     0.212 A 
ATOM     28  C   UNL d   2      14.625 -34.350   0.000  0.00  0.00     0.180 A 
ATOM     29  C   UNL d   2      23.214 -46.150   0.000  0.00  0.00     0.113 A 
ATOM     30  C   UNL d   2      15.167 -38.350   0.000  0.00  0.00     0.296 A 
ATOM     31  C   UNL d   2      21.357 -46.350   0.000  0.00  0.00     0.220 A 
ATOM     32  C   UNL d   2      24.700 -42.350   0.000  0.00  0.00     0.093 A 
ATOM     33  C   UNL d   2      20.583 -44.000   0.000  0.00  0.00     0.036 A 
ATOM     34  C   UNL d   2      19.500 -40.150   0.000  0.00  0.00     0.223 A 
ATOM     35  C   UNL d   2      14.083 -32.350   0.000  0.00  0.00     0.206 A 
ATOM     36  C   UNL d   2      23.833 -39.800   0.000  0.00  0.00     0.276 A 
ATOM     37  C   UNL d   2      23.706 -48.000   0.000  0.00  0.00     0.132 A 
ATOM     38  C   UNL d   2      24.917 -44.150   0.000  0.00  0.00     0.034 A 
ATOM     39  C   UNL d   2      25.071 -45.800   0.000  0.00  0.00     0.099 A 
ATOM     40  C   UNL d   2      22.750 -30.350   0.000  0.00  0.00     0.269 A 
ATOM     41  C   UNL d   2      23.833 -27.800   0.000  0.00  0.00     0.062 A 
ATOM     42  C   UNL d   2      15.167 -28.350   0.000  0.00  0.00     0.272 A 
ATOM     43  C   UNL d   2      21.125 -25.800   0.000  0.00  0.00     0.054 A 
ATOM     44  C   UNL d   2      17.875 -26.150   0.000  0.00  0.00     0.077 A 
ATOM     45  C   UNL d   2      15.438 -24.150   0.000  0.00  0.00    -0.014 A 
ATOM     46  C   UNL d   2      24.917 -30.150   0.000  0.00  0.00     0.051 A 
ATOM     47  C   UNL d   2      19.500 -28.150   0.000  0.00  0.00     0.144 A 
ATOM     48  C   UNL d   2      17.062 -23.800   0.000  0.00  0.00     0.059 A 
ATOM     49  C   UNL d   2      13.542 -22.350   0.000  0.00  0.00     0.102 A 
ATOM     50  C   UNL d   2      20.583 -32.000   0.000  0.00  0.00     0.134 A 
ATOM     51  C   UNL d   2      20.583 -30.000   0.000  0.00  0.00     0.164 A 
ATOM     52  C   UNL d   2      14.625 -22.150   0.000  0.00  0.00     0.157 A 
ATOM     53  C   UNL d   2      13.500 -20.350   0.000  0.00  0.00     0.119 A 
ATOM     54  C   UNL d   2      19.500  -7.800   0.000  0.00  0.00     0.191 A 
ATOM     55  C   UNL d   2      17.875  -6.150   0.000  0.00  0.00     0.194 A 
ATOM     56  C   UNL d   2      15.786 -10.150   0.000  0.00  0.00     0.212 A 
ATOM     57  C   UNL d   2      15.167  -4.350   0.000  0.00  0.00     0.180 A 
ATOM     58  C   UNL d   2      14.300  -8.350   0.000  0.00  0.00     0.296 A 
ATOM     59  C   UNL d   2      17.550 -18.000   0.000  0.00  0.00     0.167 A 
ATOM     60  C   UNL d   2      13.812 -16.350   0.000  0.00  0.00     0.155 A 
ATOM     61  C   UNL d   2      18.688 -16.000   0.000  0.00  0.00     0.093 A 
ATOM     62  C   UNL d   2      17.062 -13.800   0.000  0.00  0.00     0.271 A 
ATOM     63  C   UNL d   2      15.438 -14.150   0.000  0.00  0.00     0.086 A 
ATOM     64  C   UNL d   2      13.812 -12.350   0.000  0.00  0.00     0.273 A 
ATOM     65  C   UNL d   2      18.500 -20.150   0.000  0.00  0.00     0.118 A 
ATOM     66  C   UNL d   2      14.950 -18.150   0.000  0.00  0.00     0.168 A 
ATOM     67  C   UNL d   2      18.850 -18.350   0.000  0.00  0.00     0.075 A 
ATOM     68  C   UNL d   2      15.438 -16.150   0.000  0.00  0.00     0.053 A 
ATOM     69  C   UNL d   2      20.042 -21.800   0.000  0.00  0.00     0.127 A 
ATOM     70  C   UNL d   2      15.500 -19.800   0.000  0.00  0.00     0.166 A 
ATOM     71  C   UNL d   2      19.500 -19.800   0.000  0.00  0.00     0.085 A 
ATOM     72  C   UNL d   2      16.250 -17.800   0.000  0.00  0.00     0.134 A 
ATOM     73  H   UNL d   2      25.188 -50.000   0.000  0.00  0.00     0.217 HD
ENDROOT
BRANCH  37  74
ATOM     74  O   UNL d   2      23.562 -49.800   0.000  0.00  0.00    -0.356 OA
ATOM     75  H   UNL d   2      24.818 -52.350   0.000  0.00  0.00     0.218 HD
ENDBRANCH  37  74
BRANCH  22  76
ATOM     76  O   UNL d   2      21.938 -50.150   0.000  0.00  0.00    -0.358 OA
ATOM     77  H   UNL d   2      22.454 -52.000   0.000  0.00  0.00     0.213 HD
ENDBRANCH  22  76
BRANCH  21  78
ATOM     78  O   UNL d   2      16.059 -47.800   0.000  0.00  0.00    -0.360 OA
ATOM     79  H   UNL d   2      18.688 -50.000   0.000  0.00  0.00     0.213 HD
ENDBRANCH  21  78
BRANCH  21  80
ATOM     80  O   UNL d   2      17.588 -48.000   0.000  0.00  0.00    -0.360 OA
ATOM     81  H   UNL d   2      20.312 -50.350   0.000  0.00  0.00     0.213 HD
ENDBRANCH  21  80
BRANCH  30  82
ATOM     82  O   UNL d   2      15.167 -40.350   0.000  0.00  0.00    -0.314 OA
BRANCH  82  83
ATOM     83  C   UNL d   2      14.300 -42.350   0.000  0.00  0.00     0.270 C 
ATOM     84  O   UNL d   2      14.083 -44.350   0.000  0.00  0.00    -0.190 OA
BRANCH  83  85
ATOM     85  C   UNL d   2      16.250 -44.150   0.000  0.00  0.00     0.053 A 
ATOM     86  C   UNL d   2      13.929 -46.350   0.000  0.00  0.00     0.050 A 
ATOM     87  C   UNL d   2      13.000 -48.350   0.000  0.00  0.00     0.134 A 
ATOM     88  C   UNL d   2      15.438 -50.150   0.000  0.00  0.00     0.163 A 
ATOM     89  C   UNL d   2      14.529 -48.150   0.000  0.00  0.00     0.134 A 
ATOM     90  O   UNL d   2      17.062 -49.800   0.000  0.00  0.00    -0.383 OA
ATOM     91  C   UNL d   2      15.786 -46.150   0.000  0.00  0.00     0.050 A 
ATOM     92  H   UNL d   2      20.091 -51.800   0.000  0.00  0.00     0.210 HD
BRANCH  87  93
ATOM     93  O   UNL d   2      13.812 -50.350   0.000  0.00  0.00    -0.383 OA
ATOM     94  H   UNL d   2      15.364 -52.350   0.000  0.00  0.00     0.210 HD
ENDBRANCH  87  93
BRANCH  88  95
ATOM     95  O   UNL d   2      17.727 -52.150   0.000  0.00  0.00    -0.380 OA
ATOM     96  H   UNL d   2      19.500 -54.350   0.000  0.00  0.00     0.211 HD
ENDBRANCH  88  95
ENDBRANCH  83  85
ENDBRANCH  82  83
ENDBRANCH  30  82
BRANCH  47  97
ATOM     97  O   UNL d   2      18.417 -29.800   0.000  0.00  0.00    -0.382 OA
ATOM     98  H   UNL d   2      16.250 -32.150   0.000  0.00  0.00     0.210 HD
ENDBRANCH  47  97
BRANCH  50  99
ATOM     99  O   UNL d   2      21.125 -33.800   0.000  0.00  0.00    -0.383 OA
ATOM    100  H   UNL d   2      21.125 -35.800   0.000  0.00  0.00     0.210 HD
ENDBRANCH  50  99
BRANCH  49 101
ATOM    101  O   UNL d   2      13.812 -24.350   0.000  0.00  0.00    -0.358 OA
ATOM    102  H   UNL d   2      14.625 -26.350   0.000  0.00  0.00     0.217 HD
ENDBRANCH  49 101
BRANCH  51 103
ATOM    103  O   UNL d   2      18.417 -31.800   0.000  0.00  0.00    -0.380 OA
ATOM    104  H   UNL d   2      17.875 -34.150   0.000  0.00  0.00     0.211 HD
ENDBRANCH  51 103
BRANCH  66 105
ATOM    105  O   UNL d   2      14.500 -20.150   0.000  0.00  0.00    -0.380 OA
ATOM    106  H   UNL d   2      15.708 -21.800   0.000  0.00  0.00     0.211 HD
ENDBRANCH  66 105
BRANCH  65 107
ATOM    107  O   UNL d   2      18.958 -22.150   0.000  0.00  0.00    -0.359 OA
ATOM    108  H   UNL d   2      20.312 -24.350   0.000  0.00  0.00     0.217 HD
ENDBRANCH  65 107
BRANCH  70 109
ATOM    109  O   UNL d   2      16.792 -22.000   0.000  0.00  0.00    -0.380 OA
ATOM    110  H   UNL d   2      18.688 -24.000   0.000  0.00  0.00     0.211 HD
ENDBRANCH  70 109
BRANCH  69 111
ATOM    111  O   UNL d   2      21.938 -24.150   0.000  0.00  0.00    -0.356 OA
ATOM    112  H   UNL d   2      24.375 -26.000   0.000  0.00  0.00     0.218 HD
ENDBRANCH  69 111
BRANCH  72 113
ATOM    113  O   UNL d   2      16.500 -20.000   0.000  0.00  0.00    -0.383 OA
ATOM    114  H   UNL d   2      17.875 -22.350   0.000  0.00  0.00     0.210 HD
ENDBRANCH  72 113
BRANCH  71 115
ATOM    115  O   UNL d   2      21.125 -22.000   0.000  0.00  0.00    -0.362 OA
ATOM    116  H   UNL d   2      23.562 -23.800   0.000  0.00  0.00     0.217 HD
ENDBRANCH  71 115
BRANCH  54 117
ATOM    117  O   UNL d   2      19.500 -10.000   0.000  0.00  0.00    -0.337 OA
BRANCH 117 118
ATOM    118  C   UNL d   2      20.312 -12.350   0.000  0.00  0.00     0.275 C 
ATOM    119  O   UNL d   2      21.938 -14.150   0.000  0.00  0.00    -0.190 OA
BRANCH 118 120
ATOM    120  C   UNL d   2      23.562 -13.800   0.000  0.00  0.00     0.086 A 
ATOM    121  C   UNL d   2      23.562 -15.800   0.000  0.00  0.00     0.034 A 
ATOM    122  C   UNL d   2      24.050 -18.350   0.000  0.00  0.00     0.099 A 
ATOM    123  C   UNL d   2      24.500 -20.000   0.000  0.00  0.00     0.131 A 
ATOM    124  C   UNL d   2      25.350 -18.150   0.000  0.00  0.00     0.099 A 
ATOM    125  O   UNL d   2      25.500 -20.350   0.000  0.00  0.00    -0.358 OA
ATOM    126  C   UNL d   2      25.188 -16.000   0.000  0.00  0.00     0.034 A 
ATOM    127  H   UNL d   2      25.458 -22.000   0.000  0.00  0.00     0.217 HD
BRANCH 122 128
ATOM    128  O   UNL d   2      23.500 -19.800   0.000  0.00  0.00    -0.358 OA
ATOM    129  H   UNL d   2      23.292 -22.150   0.000  0.00  0.00     0.217 HD
ENDBRANCH 122 128
BRANCH 123 130
ATOM    130  O   UNL d   2      24.375 -21.800   0.000  0.00  0.00    -0.356 OA
ATOM    131  H   UNL d   2      25.188 -24.000   0.000  0.00  0.00     0.218 HD
ENDBRANCH 123 130
ENDBRANCH 118 120
ENDBRANCH 117 118
ENDBRANCH  54 117
BRANCH  57 132
ATOM    132  C   UNL d   2      16.250  -2.350   0.000  0.00  0.00     0.206 C 
BRANCH 132 133
ATOM    133  O   UNL d   2      19.500   0.000   0.000  0.00  0.00    -0.345 OA
BRANCH 133 134
ATOM    134  C   UNL d   2      22.750  -2.150   0.000  0.00  0.00     0.275 C 
ATOM    135  O   UNL d   2      19.500  -4.150   0.000  0.00  0.00    -0.190 OA
BRANCH 134 136
ATOM    136  C   UNL d   2      23.833  -3.800   0.000  0.00  0.00     0.086 A 
ATOM    137  C   UNL d   2      24.375  -6.000   0.000  0.00  0.00     0.034 A 
ATOM    138  C   UNL d   2      24.700  -8.350   0.000  0.00  0.00     0.099 A 
ATOM    139  C   UNL d   2      23.214 -10.150   0.000  0.00  0.00     0.131 A 
ATOM    140  C   UNL d   2      22.100  -8.000   0.000  0.00  0.00     0.099 A 
ATOM    141  C   UNL d   2      21.125  -5.800   0.000  0.00  0.00     0.034 A 
BRANCH 138 142
ATOM    142  O   UNL d   2      25.071  -9.800   0.000  0.00  0.00    -0.358 OA
ATOM    143  H   UNL d   2      25.188 -12.000   0.000  0.00  0.00     0.217 HD
ENDBRANCH 138 142
BRANCH 139 144
ATOM    144  O   UNL d   2      23.562 -11.800   0.000  0.00  0.00    -0.356 OA
ATOM    145  H   UNL d   2      25.188 -14.000   0.000  0.00  0.00     0.218 HD
ENDBRANCH 139 144
BRANCH 140 146
ATOM    146  O   UNL d   2      21.357 -10.350   0.000  0.00  0.00    -0.358 OA
ATOM    147  H   UNL d   2      21.938 -12.150   0.000  0.00  0.00     0.217 HD
ENDBRANCH 140 146
ENDBRANCH 134 136
ENDBRANCH 133 134
ENDBRANCH 132 133
ENDBRANCH  57 132
BRANCH  55 148
ATOM    148  O   UNL d   2      16.900  -8.150   0.000  0.00  0.00    -0.317 OA
BRANCH 148 149
ATOM    149  C   UNL d   2      17.643  -9.800   0.000  0.00  0.00     0.226 C 
ATOM    150  O   UNL d   2      17.062 -11.800   0.000  0.00  0.00    -0.163 OA
BRANCH 149 151
ATOM    151  C   UNL d   2      18.688 -12.000   0.000  0.00  0.00     0.027 A 
ATOM    152  C   UNL d   2      18.688 -14.000   0.000  0.00  0.00     0.055 A 
ATOM    153  C   UNL d   2      20.312 -16.350   0.000  0.00  0.00     0.099 A 
ATOM    154  C   UNL d   2      21.450 -17.800   0.000  0.00  0.00     0.118 A 
ATOM    155  C   UNL d   2      21.938 -16.150   0.000  0.00  0.00     0.168 A 
ATOM    156  C   UNL d   2      20.312 -14.350   0.000  0.00  0.00     0.038 A 
BRANCH 153 157
ATOM    157  O   UNL d   2      20.150 -18.150   0.000  0.00  0.00    -0.358 OA
ATOM    158  H   UNL d   2      20.500 -20.000   0.000  0.00  0.00     0.217 HD
ENDBRANCH 153 157
BRANCH 154 159
ATOM    159  O   UNL d   2      21.500 -20.350   0.000  0.00  0.00    -0.359 OA
ATOM    160  H   UNL d   2      22.208 -22.350   0.000  0.00  0.00     0.217 HD
ENDBRANCH 154 159
BRANCH 155 161
ATOM    161  O   UNL d   2      22.750 -18.000   0.000  0.00  0.00    -0.375 OA
ATOM    162  H   UNL d   2      22.500 -20.150   0.000  0.00  0.00     0.211 HD
ENDBRANCH 155 161
ENDBRANCH 149 151
ENDBRANCH 148 149
ENDBRANCH  55 148
TORSDOF 75
