REMARK  23 active torsions:
REMARK  status: ('A' for Active; 'I' for Inactive)
REMARK    1  A    between atoms: C_29  and  O_6 
REMARK    2  A    between atoms: C_32  and  O_7 
REMARK    3  A    between atoms: C_38  and  O_8 
REMARK    4  A    between atoms: O_10  and  C_47 
REMARK    5  A    between atoms: O_11  and  C_48 
REMARK    6  A    between atoms: O_12  and  C_51 
REMARK    7  A    between atoms: O_13  and  C_62 
REMARK    8  A    between atoms: O_14  and  C_63 
REMARK    9  A    between atoms: C_65  and  O_15 
REMARK   10  A    between atoms: O_16  and  C_69 
REMARK   11  A    between atoms: O_17  and  C_70 
REMARK   12  A    between atoms: O_18  and  C_71 
REMARK   13  A    between atoms: O_19  and  C_74 
REMARK   14  A    between atoms: O_20  and  C_75 
REMARK   15  A    between atoms: O_21  and  C_76 
REMARK   16  A    between atoms: O_22  and  C_79 
REMARK   17  A    between atoms: O_23  and  C_82 
REMARK   18  A    between atoms: O_24  and  C_84 
REMARK   19  A    between atoms: C_34  and  C_45 
REMARK   20  A    between atoms: C_35  and  C_46 
REMARK   21  A    between atoms: C_36  and  C_42 
REMARK   22  A    between atoms: C_41  and  C_49 
REMARK   23  A    between atoms: C_64  and  C_77 
ROOT
ATOM      1  O   UNL d   1       9.320   2.998   0.000  0.00  0.00    -0.305 OA
ATOM      2  O   UNL d   1       7.049   0.073   0.000  0.00  0.00    -0.305 OA
ATOM      3  O   UNL d   1      10.730  -0.148   0.000  0.00  0.00    -0.337 OA
ATOM      4  O   UNL d   1       5.343   1.298   0.000  0.00  0.00    -0.306 OA
ATOM      5  O   UNL d   1      12.785   3.112   0.000  0.00  0.00    -0.306 OA
ATOM      6  C   UNL d   1       7.216   2.223   0.000  0.00  0.00     0.097 A 
ATOM      7  C   UNL d   1      11.094   2.344   0.000  0.00  0.00     0.097 A 
ATOM      8  C   UNL d   1       8.101   1.595   0.000  0.00  0.00     0.022 A 
ATOM      9  C   UNL d   1       9.873   1.478   0.000  0.00  0.00     0.021 A 
ATOM     10  C   UNL d   1       6.234   1.762   0.000  0.00  0.00     0.199 A 
ATOM     11  C   UNL d   1       9.044   2.037   0.000  0.00  0.00     0.092 A 
ATOM     12  C   UNL d   1       8.884  -0.026   0.000  0.00  0.00     0.021 A 
ATOM     13  C   UNL d   1      10.617   4.292   0.000  0.00  0.00     0.199 A 
ATOM     14  C   UNL d   1       8.021   0.557   0.000  0.00  0.00     0.092 A 
ATOM     15  C   UNL d   1      11.353   3.310   0.000  0.00  0.00     0.231 A 
ATOM     16  C   UNL d   1       6.149   0.680   0.000  0.00  0.00     0.231 A 
ATOM     17  C   UNL d   1       8.800  -1.108   0.000  0.00  0.00     0.094 A 
ATOM     18  C   UNL d   1       9.817   0.438   0.000  0.00  0.00     0.089 A 
ATOM     19  C   UNL d   1       9.700  -1.714   0.000  0.00  0.00     0.165 A 
ATOM     20  C   UNL d   1       6.353   2.759   0.000  0.00  0.00     0.020 A 
ATOM     21  C   UNL d   1      12.366   1.549   0.000  0.00  0.00     0.020 A 
ATOM     22  C   UNL d   1      10.671  -1.231   0.000  0.00  0.00     0.192 A 
ATOM     23  C   UNL d   1       5.441   2.310   0.000  0.00  0.00     0.085 A 
ATOM     24  C   UNL d   1      13.143   2.178   0.000  0.00  0.00     0.085 A 
ATOM     25  C   UNL d   1       6.392   3.714   0.000  0.00  0.00     0.078 A 
ATOM     26  C   UNL d   1      12.513   0.518   0.000  0.00  0.00     0.078 A 
ATOM     27  C   UNL d   1       4.660   2.860   0.000  0.00  0.00     0.074 A 
ATOM     28  C   UNL d   1      14.121   1.820   0.000  0.00  0.00     0.074 A 
ATOM     29  C   UNL d   1       5.591   4.234   0.000  0.00  0.00     0.073 A 
ATOM     30  C   UNL d   1      13.483   0.137   0.000  0.00  0.00     0.073 A 
ATOM     31  C   UNL d   1       4.734   3.812   0.000  0.00  0.00     0.071 A 
ATOM     32  C   UNL d   1      14.292   0.793   0.000  0.00  0.00     0.071 A 
ENDROOT
BRANCH  17  33
ATOM     33  C   UNL d   1       7.900  -1.542   0.000  0.00  0.00     0.020 A 
ATOM     34  C   UNL d   1       7.826  -2.540   0.000  0.00  0.00     0.088 A 
ATOM     35  O   UNL d   1       8.696  -3.112   0.000  0.00  0.00    -0.337 OA
ATOM     36  C   UNL d   1       6.926  -2.975   0.000  0.00  0.00     0.012 A 
ATOM     37  C   UNL d   1       8.627  -4.152   0.000  0.00  0.00     0.191 A 
ATOM     38  C   UNL d   1       7.690  -4.605   0.000  0.00  0.00     0.156 A 
ATOM     39  C   UNL d   1       6.833  -4.012   0.000  0.00  0.00     0.079 A 
ATOM     40  C   UNL d   1       6.099  -2.412   0.000  0.00  0.00     0.077 A 
ATOM     41  C   UNL d   1       6.172  -1.415   0.000  0.00  0.00     0.074 A 
ATOM     42  C   UNL d   1       7.073  -0.980   0.000  0.00  0.00     0.078 A 
BRANCH  37  43
ATOM     43  C   UNL d   1       9.457  -4.711   0.000  0.00  0.00    -0.024 A 
ATOM     44  C   UNL d   1       9.387  -5.708   0.000  0.00  0.00     0.049 A 
ATOM     45  C   UNL d   1      10.216  -6.268   0.000  0.00  0.00     0.099 A 
ATOM     46  C   UNL d   1      11.115  -5.829   0.000  0.00  0.00     0.098 A 
ATOM     47  C   UNL d   1      11.184  -4.832   0.000  0.00  0.00     0.040 A 
ATOM     48  C   UNL d   1      10.355  -4.272   0.000  0.00  0.00     0.013 A 
BRANCH  45  49
ATOM     49  O   UNL d   1      10.146  -7.265   0.000  0.00  0.00    -0.358 OA
ATOM     50  H   UNL d   1      10.660  -7.612   0.000  0.00  0.00     0.217 HD
ENDBRANCH  45  49
BRANCH  46  51
ATOM     51  O   UNL d   1      11.944  -6.388   0.000  0.00  0.00    -0.358 OA
ATOM     52  H   UNL d   1      11.900  -7.007   0.000  0.00  0.00     0.217 HD
ENDBRANCH  46  51
ENDBRANCH  37  43
BRANCH  38  53
ATOM     53  O   UNL d   1       7.612  -5.602   0.000  0.00  0.00    -0.392 OA
ATOM     54  H   UNL d   1       7.053  -5.869   0.000  0.00  0.00     0.210 HD
ENDBRANCH  38  53
BRANCH  40  55
ATOM     55  O   UNL d   1       5.198  -2.847   0.000  0.00  0.00    -0.360 OA
ATOM     56  H   UNL d   1       5.152  -3.466   0.000  0.00  0.00     0.217 HD
ENDBRANCH  40  55
BRANCH  42  57
ATOM     57  O   UNL d   1       7.770  -0.263   0.000  0.00  0.00    -0.360 OA
ATOM     58  H   UNL d   1       8.371  -0.416   0.000  0.00  0.00     0.217 HD
ENDBRANCH  42  57
ENDBRANCH  17  33
BRANCH  19  59
ATOM     59  O   UNL d   1       9.634  -2.712   0.000  0.00  0.00    -0.392 OA
ATOM     60  H   UNL d   1      10.149  -3.057   0.000  0.00  0.00     0.210 HD
ENDBRANCH  19  59
BRANCH  22  61
ATOM     61  C   UNL d   1      11.507  -1.781   0.000  0.00  0.00    -0.024 A 
ATOM     62  C   UNL d   1      11.448  -2.779   0.000  0.00  0.00     0.049 A 
ATOM     63  C   UNL d   1      12.284  -3.329   0.000  0.00  0.00     0.099 A 
ATOM     64  C   UNL d   1      13.177  -2.880   0.000  0.00  0.00     0.098 A 
ATOM     65  C   UNL d   1      13.236  -1.882   0.000  0.00  0.00     0.040 A 
ATOM     66  C   UNL d   1      12.400  -1.332   0.000  0.00  0.00     0.013 A 
BRANCH  63  67
ATOM     67  O   UNL d   1      12.226  -4.327   0.000  0.00  0.00    -0.358 OA
ATOM     68  H   UNL d   1      12.743  -4.668   0.000  0.00  0.00     0.217 HD
ENDBRANCH  63  67
BRANCH  64  69
ATOM     69  O   UNL d   1      14.013  -3.429   0.000  0.00  0.00    -0.358 OA
ATOM     70  H   UNL d   1      14.567  -3.151   0.000  0.00  0.00     0.217 HD
ENDBRANCH  64  69
ENDBRANCH  22  61
BRANCH  16  71
ATOM     71  C   UNL d   1       5.238   0.269   0.000  0.00  0.00     0.010 A 
ATOM     72  C   UNL d   1       4.426   0.853   0.000  0.00  0.00     0.052 A 
ATOM     73  C   UNL d   1       3.515   0.442   0.000  0.00  0.00     0.099 A 
ATOM     74  C   UNL d   1       3.415  -0.553   0.000  0.00  0.00     0.098 A 
ATOM     75  C   UNL d   1       4.227  -1.137   0.000  0.00  0.00     0.040 A 
ATOM     76  C   UNL d   1       5.138  -0.726   0.000  0.00  0.00     0.015 A 
BRANCH  73  77
ATOM     77  O   UNL d   1       2.703   1.026   0.000  0.00  0.00    -0.358 OA
ATOM     78  H   UNL d   1       2.138   0.770   0.000  0.00  0.00     0.217 HD
ENDBRANCH  73  77
BRANCH  74  79
ATOM     79  O   UNL d   1       2.503  -0.965   0.000  0.00  0.00    -0.358 OA
ATOM     80  H   UNL d   1       2.000  -0.603   0.000  0.00  0.00     0.217 HD
ENDBRANCH  74  79
ENDBRANCH  16  71
BRANCH  10  81
ATOM     81  O   UNL d   1       5.237   1.843   0.000  0.00  0.00    -0.389 OA
ATOM     82  H   UNL d   1       4.676   1.578   0.000  0.00  0.00     0.210 HD
ENDBRANCH  10  81
BRANCH  13  83
ATOM     83  O   UNL d   1      10.117   5.158   0.000  0.00  0.00    -0.389 OA
ATOM     84  H   UNL d   1       9.497   5.158   0.000  0.00  0.00     0.210 HD
ENDBRANCH  13  83
BRANCH  25  85
ATOM     85  O   UNL d   1       7.280   4.173   0.000  0.00  0.00    -0.360 OA
ATOM     86  H   UNL d   1       7.309   4.792   0.000  0.00  0.00     0.217 HD
ENDBRANCH  25  85
BRANCH  15  87
ATOM     87  C   UNL d   1      11.612   4.276   0.000  0.00  0.00     0.010 A 
ATOM     88  C   UNL d   1      12.578   4.534   0.000  0.00  0.00     0.052 A 
ATOM     89  C   UNL d   1      12.837   5.500   0.000  0.00  0.00     0.099 A 
ATOM     90  C   UNL d   1      12.130   6.207   0.000  0.00  0.00     0.098 A 
ATOM     91  C   UNL d   1      11.164   5.949   0.000  0.00  0.00     0.040 A 
ATOM     92  C   UNL d   1      10.905   4.983   0.000  0.00  0.00     0.015 A 
BRANCH  89  93
ATOM     93  O   UNL d   1      13.803   5.759   0.000  0.00  0.00    -0.358 OA
ATOM     94  H   UNL d   1      13.963   6.358   0.000  0.00  0.00     0.217 HD
ENDBRANCH  89  93
BRANCH  90  95
ATOM     95  O   UNL d   1      12.389   7.173   0.000  0.00  0.00    -0.358 OA
ATOM     96  H   UNL d   1      11.950   7.612   0.000  0.00  0.00     0.217 HD
ENDBRANCH  90  95
ENDBRANCH  15  87
BRANCH  26  97
ATOM     97  O   UNL d   1      11.729  -0.102   0.000  0.00  0.00    -0.360 OA
ATOM     98  H   UNL d   1      11.819  -0.716   0.000  0.00  0.00     0.217 HD
ENDBRANCH  26  97
BRANCH  31  99
ATOM     99  O   UNL d   1       3.906   4.372   0.000  0.00  0.00    -0.361 OA
ATOM    100  H   UNL d   1       3.950   4.991   0.000  0.00  0.00     0.217 HD
ENDBRANCH  31  99
BRANCH  32 101
ATOM    101  O   UNL d   1      15.227   0.438   0.000  0.00  0.00    -0.361 OA
ATOM    102  H   UNL d   1      15.707   0.830   0.000  0.00  0.00     0.217 HD
ENDBRANCH  32 101
TORSDOF 23
