REMARK WARNING: 32 MAX_TORS EXCEEDED!!!
REMARK  47 active torsions:
REMARK  status: ('A' for Active; 'I' for Inactive)
REMARK    1  A    between atoms: C_58  and  O_6 
REMARK    2  A    between atoms: O_6  and  C_80 
REMARK    3  A    between atoms: C_59  and  O_7 
REMARK    4  A    between atoms: C_71  and  O_12 
REMARK    5  A    between atoms: O_12  and  C_90 
REMARK    6  A    between atoms: C_72  and  O_13 
REMARK    7  A    between atoms: O_13  and  C_91 
REMARK    8  A    between atoms: C_74  and  O_15 
REMARK    9  A    between atoms: O_15  and  C_89 
REMARK   10  A    between atoms: O_16  and  C_70 
REMARK   11  A    between atoms: C_77  and  O_18 
REMARK   12  A    between atoms: O_18  and  C_96 
REMARK   13  A    between atoms: O_19  and  C_76 
REMARK   14  A    between atoms: O_21  and  C_79 
REMARK   15  A    between atoms: O_21  and  C_104 
REMARK   16  A    between atoms: O_24  and  C_97 
REMARK   17  A    between atoms: O_24  and  C_105 
REMARK   18  A    between atoms: O_25  and  C_88 
REMARK   19  A    between atoms: O_26  and  C_93 
REMARK   20  A    between atoms: O_30  and  C_94 
REMARK   21  A    between atoms: O_31  and  C_95 
REMARK   22  A    between atoms: O_32  and  C_98 
REMARK   23  A    between atoms: O_35  and  C_107 
REMARK   24  A    between atoms: O_36  and  C_108 
REMARK   25  A    between atoms: O_37  and  C_110 
REMARK   26  A    between atoms: O_38  and  C_111 
REMARK   27  A    between atoms: O_39  and  C_117 
REMARK   28  A    between atoms: O_40  and  C_120 
REMARK   29  A    between atoms: O_41  and  C_121 
REMARK   30  A    between atoms: O_42  and  C_122 
REMARK   31  A    between atoms: O_43  and  C_123 
REMARK   32  A    between atoms: O_44  and  C_124 
REMARK   33  A    between atoms: O_45  and  C_127 
REMARK   34  A    between atoms: O_46  and  C_128 
REMARK   35  A    between atoms: O_47  and  C_129 
REMARK   36  A    between atoms: O_48  and  C_130 
REMARK   37  A    between atoms: O_49  and  C_131 
REMARK   38  A    between atoms: O_50  and  C_132 
REMARK   39  A    between atoms: O_51  and  C_133 
REMARK   40  A    between atoms: O_52  and  C_134 
REMARK   41  A    between atoms: C_75  and  C_79 
REMARK   42  A    between atoms: C_80  and  C_86 
REMARK   43  A    between atoms: C_89  and  C_101 
REMARK   44  A    between atoms: C_90  and  C_102 
REMARK   45  A    between atoms: C_91  and  C_103 
REMARK   46  A    between atoms: C_96  and  C_106 
REMARK   47  A    between atoms: C_104  and  C_112 
ROOT
ATOM      1  C   UNL d   1      10.974  -1.253   0.000  0.00  0.00     0.079 A 
ATOM      2  C   UNL d   1      11.959  -1.080   0.000  0.00  0.00     0.128 A 
ATOM      3  C   UNL d   1      10.632  -2.193   0.000  0.00  0.00     0.060 A 
ATOM      4  C   UNL d   1      12.601  -1.846   0.000  0.00  0.00     0.137 A 
ATOM      5  C   UNL d   1      11.275  -2.959   0.000  0.00  0.00     0.102 A 
ATOM      6  C   UNL d   1      12.259  -2.785   0.000  0.00  0.00     0.135 A 
ENDROOT
BRANCH   2   7
ATOM      7  O   UNL d   1      12.725  -0.437   0.000  0.00  0.00    -0.304 OA
BRANCH   7   8
ATOM      8  C   UNL d   1      13.725  -0.437   0.000  0.00  0.00     0.113 A 
ATOM      9  C   UNL d   1      14.249  -1.337   0.000  0.00  0.00     0.058 A 
ATOM     10  C   UNL d   1      15.291  -1.325   0.000  0.00  0.00     0.056 A 
ATOM     11  C   UNL d   1      15.287  -2.325   0.000  0.00  0.00     0.294 A 
ATOM     12  C   UNL d   1      15.794  -0.461   0.000  0.00  0.00     0.030 A 
ATOM     13  O   UNL d   1      15.784  -3.193   0.000  0.00  0.00    -0.315 OA
ATOM     14  O   UNL d   1      14.577  -3.029   0.000  0.00  0.00    -0.259 OA
ATOM     15  C   UNL d   1      16.648  -3.696   0.000  0.00  0.00     0.213 A 
ATOM     16  C   UNL d   1      17.648  -3.700   0.000  0.00  0.00     0.181 A 
ATOM     17  O   UNL d   1      19.040  -4.253   0.000  0.00  0.00    -0.348 OA
ATOM     18  C   UNL d   1      18.515  -3.204   0.000  0.00  0.00     0.195 A 
ATOM     19  C   UNL d   1      20.208  -3.314   0.000  0.00  0.00     0.302 A 
ATOM     20  C   UNL d   1      19.967  -1.835   0.000  0.00  0.00     0.220 A 
ATOM     21  O   UNL d   1      21.038  -1.927   0.000  0.00  0.00    -0.304 OA
ATOM     22  C   UNL d   1      19.019  -2.339   0.000  0.00  0.00     0.198 A 
ATOM     23  C   UNL d   1      21.886  -2.587   0.000  0.00  0.00     0.294 A 
ATOM     24  O   UNL d   1      22.698  -2.004   0.000  0.00  0.00    -0.259 OA
ATOM     25  C   UNL d   1      22.239  -3.601   0.000  0.00  0.00     0.052 A 
ATOM     26  C   UNL d   1      21.983  -4.645   0.000  0.00  0.00     0.009 A 
ATOM     27  C   UNL d   1      23.201  -3.097   0.000  0.00  0.00     0.057 A 
ATOM     28  C   UNL d   1      21.202  -5.382   0.000  0.00  0.00     0.133 A 
ATOM     29  C   UNL d   1      22.919  -5.160   0.000  0.00  0.00     0.117 A 
ATOM     30  C   UNL d   1      21.661  -6.346   0.000  0.00  0.00     0.250 A 
ATOM     31  C   UNL d   1      20.145  -5.575   0.000  0.00  0.00     0.035 A 
ATOM     32  O   UNL d   1      22.720  -6.209   0.000  0.00  0.00    -0.302 OA
ATOM     33  C   UNL d   1      21.239  -7.348   0.000  0.00  0.00     0.262 A 
ATOM     34  O   UNL d   1      21.823  -8.159   0.000  0.00  0.00    -0.283 OA
ATOM     35  C   UNL d   1      20.155  -7.431   0.000  0.00  0.00     0.224 A 
ATOM     36  O   UNL d   1      19.702  -8.323   0.000  0.00  0.00    -0.284 OA
ATOM     37  C   UNL d   1      19.584  -6.506   0.000  0.00  0.00     0.073 A 
ATOM     38  C   UNL d   1      19.153  -5.163   0.000  0.00  0.00     0.290 A 
ATOM     39  O   UNL d   1      18.545  -4.277   0.000  0.00  0.00    -0.307 OA
ATOM     40  O   UNL d   1      18.523  -5.940   0.000  0.00  0.00    -0.260 OA
ATOM     41  C   UNL d   1      23.944  -4.798   0.000  0.00  0.00     0.133 A 
ATOM     42  C   UNL d   1      24.091  -3.721   0.000  0.00  0.00     0.102 A 
ATOM     43  O   UNL d   1      19.023  -1.339   0.000  0.00  0.00    -0.306 OA
ATOM     44  C   UNL d   1      18.526  -0.471   0.000  0.00  0.00     0.294 A 
ATOM     45  O   UNL d   1      19.236   0.233   0.000  0.00  0.00    -0.259 OA
ATOM     46  C   UNL d   1      17.662   0.032   0.000  0.00  0.00     0.056 A 
ATOM     47  C   UNL d   1      16.662   0.036   0.000  0.00  0.00     0.030 A 
ATOM     48  C   UNL d   1      18.200   0.924   0.000  0.00  0.00     0.058 A 
ATOM     49  C   UNL d   1      16.131   0.932   0.000  0.00  0.00     0.114 A 
ATOM     50  C   UNL d   1      16.648   1.836   0.000  0.00  0.00     0.133 A 
ATOM     51  C   UNL d   1      17.690   1.832   0.000  0.00  0.00     0.102 A 
ATOM     52  C   UNL d   1      15.291   0.451   0.000  0.00  0.00     0.114 A 
ATOM     53  C   UNL d   1      14.249   0.463   0.000  0.00  0.00     0.134 A 
BRANCH  19  54
ATOM     54  O   UNL d   1      21.196  -3.157   0.000  0.00  0.00    -0.283 OA
BRANCH  54  55
ATOM     55  C   UNL d   1      21.554  -2.223   0.000  0.00  0.00     0.295 C 
ATOM     56  O   UNL d   1      21.397  -1.236   0.000  0.00  0.00    -0.259 OA
BRANCH  55  57
ATOM     57  C   UNL d   1      22.209  -1.468   0.000  0.00  0.00     0.045 A 
ATOM     58  C   UNL d   1      21.884  -0.523   0.000  0.00  0.00     0.057 A 
ATOM     59  C   UNL d   1      22.539   0.232   0.000  0.00  0.00     0.102 A 
ATOM     60  C   UNL d   1      23.521   0.042   0.000  0.00  0.00     0.132 A 
ATOM     61  C   UNL d   1      23.847  -0.904   0.000  0.00  0.00     0.102 A 
ATOM     62  C   UNL d   1      23.191  -1.659   0.000  0.00  0.00     0.057 A 
BRANCH  59  63
ATOM     63  O   UNL d   1      22.213   1.177   0.000  0.00  0.00    -0.358 OA
ATOM     64  H   UNL d   1      21.605   1.296   0.000  0.00  0.00     0.217 HD
ENDBRANCH  59  63
BRANCH  60  65
ATOM     65  O   UNL d   1      24.177   0.797   0.000  0.00  0.00    -0.356 OA
ATOM     66  H   UNL d   1      23.975   1.383   0.000  0.00  0.00     0.218 HD
ENDBRANCH  60  65
BRANCH  61  67
ATOM     67  O   UNL d   1      24.829  -1.094   0.000  0.00  0.00    -0.358 OA
ATOM     68  H   UNL d   1      25.031  -1.680   0.000  0.00  0.00     0.217 HD
ENDBRANCH  61  67
ENDBRANCH  55  57
ENDBRANCH  54  55
ENDBRANCH  19  54
BRANCH  30  69
ATOM     69  O   UNL d   1      21.859  -7.326   0.000  0.00  0.00    -0.358 OA
ATOM     70  H   UNL d   1      22.446  -7.524   0.000  0.00  0.00     0.213 HD
ENDBRANCH  30  69
BRANCH  41  71
ATOM     71  O   UNL d   1      24.719  -5.429   0.000  0.00  0.00    -0.356 OA
ATOM     72  H   UNL d   1      25.299  -5.209   0.000  0.00  0.00     0.218 HD
ENDBRANCH  41  71
BRANCH  42  73
ATOM     73  O   UNL d   1      25.008  -3.321   0.000  0.00  0.00    -0.358 OA
ATOM     74  H   UNL d   1      25.506  -3.689   0.000  0.00  0.00     0.217 HD
ENDBRANCH  42  73
BRANCH  49  75
ATOM     75  O   UNL d   1      15.145   1.098   0.000  0.00  0.00    -0.357 OA
ATOM     76  H   UNL d   1      14.742   1.570   0.000  0.00  0.00     0.217 HD
ENDBRANCH  49  75
BRANCH  50  77
ATOM     77  O   UNL d   1      16.148   2.702   0.000  0.00  0.00    -0.356 OA
ATOM     78  H   UNL d   1      16.458   3.239   0.000  0.00  0.00     0.218 HD
ENDBRANCH  50  77
BRANCH  51  79
ATOM     79  O   UNL d   1      18.196   2.694   0.000  0.00  0.00    -0.358 OA
ATOM     80  H   UNL d   1      18.816   2.689   0.000  0.00  0.00     0.217 HD
ENDBRANCH  51  79
BRANCH  52  81
ATOM     81  O   UNL d   1      15.647   1.385   0.000  0.00  0.00    -0.357 OA
ATOM     82  H   UNL d   1      15.444   1.971   0.000  0.00  0.00     0.217 HD
ENDBRANCH  52  81
BRANCH  53  83
ATOM     83  O   UNL d   1      13.756   1.333   0.000  0.00  0.00    -0.356 OA
ATOM     84  H   UNL d   1      13.136   1.338   0.000  0.00  0.00     0.218 HD
ENDBRANCH  53  83
ENDBRANCH   7   8
ENDBRANCH   2   7
BRANCH   1  85
ATOM     85  C   UNL d   1      10.331  -0.487   0.000  0.00  0.00     0.296 C 
ATOM     86  O   UNL d   1       9.465  -0.987   0.000  0.00  0.00    -0.259 OA
BRANCH  85  87
ATOM     87  O   UNL d   1      10.331   0.513   0.000  0.00  0.00    -0.304 OA
BRANCH  87  88
ATOM     88  C   UNL d   1       9.465   1.013   0.000  0.00  0.00     0.220 A 
ATOM     89  C   UNL d   1       8.599   0.513   0.000  0.00  0.00     0.198 A 
ATOM     90  C   UNL d   1       7.733   1.013   0.000  0.00  0.00     0.195 A 
ATOM     91  C   UNL d   1       7.733   2.013   0.000  0.00  0.00     0.181 A 
ATOM     92  O   UNL d   1       8.599   2.513   0.000  0.00  0.00    -0.348 OA
ATOM     93  C   UNL d   1       9.465   2.013   0.000  0.00  0.00     0.302 A 
BRANCH  89  94
ATOM     94  O   UNL d   1       8.599  -0.487   0.000  0.00  0.00    -0.306 OA
BRANCH  94  95
ATOM     95  C   UNL d   1       7.733  -0.987   0.000  0.00  0.00     0.294 C 
ATOM     96  O   UNL d   1       6.867  -0.487   0.000  0.00  0.00    -0.259 OA
BRANCH  95  97
ATOM     97  C   UNL d   1       7.733  -1.987   0.000  0.00  0.00     0.045 A 
ATOM     98  C   UNL d   1       8.599  -2.487   0.000  0.00  0.00     0.057 A 
ATOM     99  C   UNL d   1       8.599  -3.487   0.000  0.00  0.00     0.102 A 
ATOM    100  C   UNL d   1       7.733  -3.987   0.000  0.00  0.00     0.132 A 
ATOM    101  C   UNL d   1       6.867  -3.487   0.000  0.00  0.00     0.102 A 
ATOM    102  C   UNL d   1       6.867  -2.487   0.000  0.00  0.00     0.057 A 
BRANCH  99 103
ATOM    103  O   UNL d   1       9.465  -3.987   0.000  0.00  0.00    -0.358 OA
ATOM    104  H   UNL d   1       9.465  -4.607   0.000  0.00  0.00     0.217 HD
ENDBRANCH  99 103
BRANCH 100 105
ATOM    105  O   UNL d   1       7.733  -4.987   0.000  0.00  0.00    -0.356 OA
ATOM    106  H   UNL d   1       7.196  -5.297   0.000  0.00  0.00     0.218 HD
ENDBRANCH 100 105
BRANCH 101 107
ATOM    107  O   UNL d   1       6.001  -3.987   0.000  0.00  0.00    -0.358 OA
ATOM    108  H   UNL d   1       6.001  -4.607   0.000  0.00  0.00     0.217 HD
ENDBRANCH 101 107
ENDBRANCH  95  97
ENDBRANCH  94  95
ENDBRANCH  89  94
BRANCH  90 109
ATOM    109  O   UNL d   1       6.867   0.513   0.000  0.00  0.00    -0.307 OA
BRANCH 109 110
ATOM    110  C   UNL d   1       6.001   1.013   0.000  0.00  0.00     0.294 C 
ATOM    111  O   UNL d   1       6.001   2.013   0.000  0.00  0.00    -0.259 OA
BRANCH 110 112
ATOM    112  C   UNL d   1       5.135   0.513   0.000  0.00  0.00     0.045 A 
ATOM    113  C   UNL d   1       4.269   1.013   0.000  0.00  0.00     0.057 A 
ATOM    114  C   UNL d   1       3.403   0.513   0.000  0.00  0.00     0.102 A 
ATOM    115  C   UNL d   1       3.403  -0.487   0.000  0.00  0.00     0.132 A 
ATOM    116  C   UNL d   1       4.269  -0.987   0.000  0.00  0.00     0.102 A 
ATOM    117  C   UNL d   1       5.135  -0.487   0.000  0.00  0.00     0.057 A 
BRANCH 114 118
ATOM    118  O   UNL d   1       2.537   1.013   0.000  0.00  0.00    -0.358 OA
ATOM    119  H   UNL d   1       2.537   1.633   0.000  0.00  0.00     0.217 HD
ENDBRANCH 114 118
BRANCH 115 120
ATOM    120  O   UNL d   1       2.537  -0.987   0.000  0.00  0.00    -0.356 OA
ATOM    121  H   UNL d   1       2.000  -0.677   0.000  0.00  0.00     0.218 HD
ENDBRANCH 115 120
BRANCH 116 122
ATOM    122  O   UNL d   1       4.269  -1.987   0.000  0.00  0.00    -0.358 OA
ATOM    123  H   UNL d   1       3.732  -2.297   0.000  0.00  0.00     0.217 HD
ENDBRANCH 116 122
ENDBRANCH 110 112
ENDBRANCH 109 110
ENDBRANCH  90 109
BRANCH  91 124
ATOM    124  C   UNL d   1       6.867   2.513   0.000  0.00  0.00     0.213 C 
BRANCH 124 125
ATOM    125  O   UNL d   1       6.867   3.513   0.000  0.00  0.00    -0.315 OA
BRANCH 125 126
ATOM    126  C   UNL d   1       6.001   4.013   0.000  0.00  0.00     0.293 C 
ATOM    127  O   UNL d   1       5.135   3.513   0.000  0.00  0.00    -0.259 OA
BRANCH 126 128
ATOM    128  C   UNL d   1       6.001   5.013   0.000  0.00  0.00     0.045 A 
ATOM    129  C   UNL d   1       5.135   5.513   0.000  0.00  0.00     0.057 A 
ATOM    130  C   UNL d   1       5.135   6.513   0.000  0.00  0.00     0.102 A 
ATOM    131  C   UNL d   1       6.001   7.013   0.000  0.00  0.00     0.132 A 
ATOM    132  C   UNL d   1       6.867   6.513   0.000  0.00  0.00     0.102 A 
ATOM    133  C   UNL d   1       6.867   5.513   0.000  0.00  0.00     0.057 A 
BRANCH 130 134
ATOM    134  O   UNL d   1       4.269   7.013   0.000  0.00  0.00    -0.358 OA
ATOM    135  H   UNL d   1       3.732   6.703   0.000  0.00  0.00     0.217 HD
ENDBRANCH 130 134
BRANCH 131 136
ATOM    136  O   UNL d   1       6.001   8.013   0.000  0.00  0.00    -0.356 OA
ATOM    137  H   UNL d   1       5.464   8.323   0.000  0.00  0.00     0.218 HD
ENDBRANCH 131 136
BRANCH 132 138
ATOM    138  O   UNL d   1       7.733   7.013   0.000  0.00  0.00    -0.358 OA
ATOM    139  H   UNL d   1       7.733   7.633   0.000  0.00  0.00     0.217 HD
ENDBRANCH 132 138
ENDBRANCH 126 128
ENDBRANCH 125 126
ENDBRANCH 124 125
ENDBRANCH  91 124
BRANCH  93 140
ATOM    140  O   UNL d   1      10.331   2.513   0.000  0.00  0.00    -0.283 OA
BRANCH 140 141
ATOM    141  C   UNL d   1      10.331   3.513   0.000  0.00  0.00     0.295 C 
ATOM    142  O   UNL d   1       9.465   4.013   0.000  0.00  0.00    -0.259 OA
BRANCH 141 143
ATOM    143  C   UNL d   1      11.197   4.013   0.000  0.00  0.00     0.045 A 
ATOM    144  C   UNL d   1      12.063   3.513   0.000  0.00  0.00     0.057 A 
ATOM    145  C   UNL d   1      12.929   4.013   0.000  0.00  0.00     0.102 A 
ATOM    146  C   UNL d   1      12.929   5.013   0.000  0.00  0.00     0.132 A 
ATOM    147  C   UNL d   1      12.063   5.513   0.000  0.00  0.00     0.102 A 
ATOM    148  C   UNL d   1      11.197   5.013   0.000  0.00  0.00     0.057 A 
BRANCH 145 149
ATOM    149  O   UNL d   1      13.795   3.513   0.000  0.00  0.00    -0.358 OA
ATOM    150  H   UNL d   1      14.332   3.823   0.000  0.00  0.00     0.217 HD
ENDBRANCH 145 149
BRANCH 146 151
ATOM    151  O   UNL d   1      13.795   5.513   0.000  0.00  0.00    -0.356 OA
ATOM    152  H   UNL d   1      13.795   6.133   0.000  0.00  0.00     0.218 HD
ENDBRANCH 146 151
BRANCH 147 153
ATOM    153  O   UNL d   1      12.063   6.513   0.000  0.00  0.00    -0.358 OA
ATOM    154  H   UNL d   1      11.526   6.823   0.000  0.00  0.00     0.217 HD
ENDBRANCH 147 153
ENDBRANCH 141 143
ENDBRANCH 140 141
ENDBRANCH  93 140
ENDBRANCH  87  88
ENDBRANCH  85  87
ENDBRANCH   1  85
BRANCH   4 155
ATOM    155  O   UNL d   1      13.586  -1.672   0.000  0.00  0.00    -0.356 OA
ATOM    156  H   UNL d   1      13.694  -2.283   0.000  0.00  0.00     0.218 HD
ENDBRANCH   4 155
BRANCH   6 157
ATOM    157  O   UNL d   1      12.902  -3.552   0.000  0.00  0.00    -0.356 OA
ATOM    158  H   UNL d   1      12.690  -4.134   0.000  0.00  0.00     0.218 HD
ENDBRANCH   6 157
BRANCH   5 159
ATOM    159  O   UNL d   1      10.933  -3.899   0.000  0.00  0.00    -0.358 OA
ATOM    160  H   UNL d   1      10.322  -4.006   0.000  0.00  0.00     0.217 HD
ENDBRANCH   5 159
TORSDOF 47
