REMARK  9 active torsions:
REMARK  status: ('A' for Active; 'I' for Inactive)
REMARK    1  A    between atoms: SI_1  and  O_2 
REMARK    2  A    between atoms: SI_1  and  O_3 
REMARK    3  A    between atoms: SI_1  and  O_4 
REMARK    4  A    between atoms: SI_1  and  C_7 
REMARK    5  A    between atoms: O_5  and  C_9 
REMARK    6  A    between atoms: O_5  and  C_13 
REMARK    7  A    between atoms: C_7  and  C_8 
REMARK    8  A    between atoms: C_8  and  C_9 
REMARK    9  A    between atoms: C_13  and  C_14 
ROOT
ATOM      1  C   UNL d   1       4.598   0.500   0.000  0.00  0.00     0.002 C 
ENDROOT
BRANCH   1   2
ATOM      2 SI   UNL d   1       3.732   0.000   0.000  0.00  0.00     0.000 Si
BRANCH   2   3
ATOM      3  O   UNL d   1       2.866  -0.500   0.000  0.00  0.00    -0.247 OA
ATOM      4  C   UNL d   1       2.000  -0.000   0.000  0.00  0.00     0.247 C 
ENDBRANCH   2   3
BRANCH   2   5
ATOM      5  O   UNL d   1       3.232   0.866   0.000  0.00  0.00    -0.247 OA
ATOM      6  C   UNL d   1       3.732   1.732   0.000  0.00  0.00     0.247 C 
ENDBRANCH   2   5
BRANCH   2   7
ATOM      7  O   UNL d   1       4.232  -0.866   0.000  0.00  0.00    -0.247 OA
ATOM      8  C   UNL d   1       3.732  -1.732   0.000  0.00  0.00     0.247 C 
ENDBRANCH   2   7
ENDBRANCH   1   2
BRANCH   1   9
ATOM      9  C   UNL d   1       5.464   0.000   0.000  0.00  0.00     0.027 C 
BRANCH   9  10
ATOM     10  C   UNL d   1       6.330   0.500   0.000  0.00  0.00     0.179 C 
BRANCH  10  11
ATOM     11  O   UNL d   1       7.196  -0.000   0.000  0.00  0.00    -0.318 OA
BRANCH  11  12
ATOM     12  C   UNL d   1       8.062   0.500   0.000  0.00  0.00     0.288 C 
ATOM     13  O   UNL d   1       8.062   1.500   0.000  0.00  0.00    -0.260 OA
BRANCH  12  14
ATOM     14  C   UNL d   1       8.928  -0.000   0.000  0.00  0.00     0.004 C 
ATOM     15  C   UNL d   1       9.794   0.500   0.000  0.00  0.00     0.054 C 
ATOM     16  C   UNL d   1       8.928  -1.000   0.000  0.00  0.00     0.024 C 
ENDBRANCH  12  14
ENDBRANCH  11  12
ENDBRANCH  10  11
ENDBRANCH   9  10
ENDBRANCH   1   9
TORSDOF 9
