REMARK  0 active torsions:
REMARK  status: ('A' for Active; 'I' for Inactive)
ROOT
ATOM      1  O   UNL d   1       2.000   0.750   0.000  0.00  0.00    -0.648 OA
ATOM      2  O   UNL d   1       3.732   0.750   0.000  0.00  0.00    -0.648 OA
ATOM      3  C   UNL d   1       2.866  -0.750   0.000  0.00  0.00     0.129 C 
ATOM      4  C   UNL d   1       2.866   0.250   0.000  0.00  0.00     0.168 C 
ENDROOT
TORSDOF 0
