REMARK  7 active torsions:
REMARK  status: ('A' for Active; 'I' for Inactive)
REMARK    1  A    between atoms: C_22  and  O_1 
REMARK    2  A    between atoms: C_6  and  C_13 
REMARK    3  A    between atoms: C_13  and  C_20 
REMARK    4  A    between atoms: C_20  and  C_24 
REMARK    5  A    between atoms: C_25  and  C_24 
REMARK    6  A    between atoms: C_25  and  C_26 
REMARK    7  A    between atoms: C_25  and  C_27 
ROOT
ATOM      1  C   UNL d   1       7.929  -0.607   0.000  0.00  0.00    -0.036 A 
ATOM      2  C   UNL d   1       7.929  -1.607   0.000  0.00  0.00    -0.001 A 
ATOM      3  C   UNL d   1       7.063  -2.107   0.000  0.00  0.00    -0.001 A 
ATOM      4  C   UNL d   1       6.197  -1.607   0.000  0.00  0.00     0.003 A 
ATOM      5  C   UNL d   1       8.875  -0.303   0.000  0.00  0.00    -0.002 A 
ATOM      6  C   UNL d   1       7.063  -0.107   0.000  0.00  0.00     0.010 A 
ATOM      7  C   UNL d   1       5.287  -2.114   0.000  0.00  0.00    -0.017 A 
ATOM      8  C   UNL d   1       8.875  -1.912   0.000  0.00  0.00     0.006 A 
ATOM      9  C   UNL d   1       6.197  -0.607   0.000  0.00  0.00     0.007 A 
ATOM     10  C   UNL d   1       9.459  -1.107   0.000  0.00  0.00     0.006 A 
ATOM     11  C   UNL d   1       7.079  -3.149   0.000  0.00  0.00     0.033 A 
ATOM     12  C   UNL d   1       7.929   0.393   0.000  0.00  0.00     0.016 C 
ATOM     13  C   UNL d   1       5.279  -3.156   0.000  0.00  0.00    -0.072 A 
ATOM     14  C   UNL d   1       4.360  -1.550   0.000  0.00  0.00     0.016 A 
ATOM     15  C   UNL d   1       6.181  -3.677   0.000  0.00  0.00    -0.023 A 
ATOM     16  C   UNL d   1       5.295  -1.114   0.000  0.00  0.00     0.020 C 
ATOM     17  C   UNL d   1       4.343  -3.706   0.000  0.00  0.00     0.066 A 
ATOM     18  C   UNL d   1       3.412  -2.078   0.000  0.00  0.00     0.033 A 
ATOM     19  C   UNL d   1       3.404  -3.163   0.000  0.00  0.00     0.122 A 
ENDROOT
BRANCH   5  20
ATOM     20  C   UNL d   1       9.186   0.648   0.000  0.00  0.00    -0.014 C 
ATOM     21  C   UNL d   1       8.518   1.392   0.000  0.00  0.00     0.010 C 
BRANCH  20  22
ATOM     22  C   UNL d   1      10.164   0.854   0.000  0.00  0.00     0.005 C 
BRANCH  22  23
ATOM     23  C   UNL d   1      10.475   1.805   0.000  0.00  0.00     0.005 C 
BRANCH  23  24
ATOM     24  C   UNL d   1      11.453   2.011   0.000  0.00  0.00    -0.012 C 
BRANCH  24  25
ATOM     25  C   UNL d   1      11.764   2.961   0.000  0.00  0.00    -0.019 C 
ATOM     26  C   UNL d   1      12.742   3.167   0.000  0.00  0.00     0.010 C 
ATOM     27  C   UNL d   1      11.096   3.706   0.000  0.00  0.00     0.010 C 
ENDBRANCH  24  25
BRANCH  24  28
ATOM     28  C   UNL d   1      12.121   1.266   0.000  0.00  0.00     0.000 C 
ATOM     29  C   UNL d   1      13.100   1.473   0.000  0.00  0.00     0.005 C 
ENDBRANCH  24  28
ENDBRANCH  23  24
ENDBRANCH  22  23
ENDBRANCH  20  22
ENDBRANCH   5  20
BRANCH  19  30
ATOM     30  O   UNL d   1       2.536  -3.660   0.000  0.00  0.00    -0.395 OA
ATOM     31  H   UNL d   1       2.000  -3.348   0.000  0.00  0.00     0.210 HD
ENDBRANCH  19  30
TORSDOF 7
