REMARK  0 active torsions:
REMARK  status: ('A' for Active; 'I' for Inactive)
ROOT
ATOM      1  O   UNL d   1       3.732   2.000   0.000  0.00  0.00    -0.265 OA
ATOM      2  O   UNL d   1       2.000  -1.000   0.000  0.00  0.00    -0.246 OA
ATOM      3  N   UNL d   1       3.732  -1.000   0.000  0.00  0.00    -0.286 N 
ATOM      4  N   UNL d   1       5.544   0.805   0.000  0.00  0.00    -0.338 N 
ATOM      5  N   UNL d   1       2.866   0.500   0.000  0.00  0.00    -0.269 N 
ATOM      6  N   UNL d   1       5.544  -0.805   0.000  0.00  0.00    -0.223 NA
ATOM      7  C   UNL d   1       4.598   0.500   0.000  0.00  0.00     0.151 A 
ATOM      8  C   UNL d   1       4.598  -0.500   0.000  0.00  0.00     0.167 A 
ATOM      9  C   UNL d   1       3.732   1.000   0.000  0.00  0.00     0.282 A 
ATOM     10  C   UNL d   1       2.866  -0.500   0.000  0.00  0.00     0.332 A 
ATOM     11  C   UNL d   1       6.128   0.000   0.000  0.00  0.00     0.212 A 
ATOM     12  C   UNL d   1       3.732  -2.000   0.000  0.00  0.00     0.163 C 
ATOM     13  C   UNL d   1       5.855   1.755   0.000  0.00  0.00     0.157 C 
ATOM     14  C   UNL d   1       2.000   1.000   0.000  0.00  0.00     0.164 C 
ENDROOT
TORSDOF 0
