REMARK  0 active torsions:
REMARK  status: ('A' for Active; 'I' for Inactive)
ROOT
ATOM      1  O   UNL d   1       5.614  -2.159   0.000  0.00  0.00    -0.297 OA
ATOM      2  C   UNL d   1       3.237   1.164   0.000  0.00  0.00    -0.029 A 
ATOM      3  C   UNL d   1       3.715  -0.784   0.000  0.00  0.00     0.024 A 
ATOM      4  C   UNL d   1       3.974   0.182   0.000  0.00  0.00     0.001 A 
ATOM      5  C   UNL d   1       2.342  -1.376   0.000  0.00  0.00     0.018 A 
ATOM      6  C   UNL d   1       2.000  -0.436   0.000  0.00  0.00     0.007 A 
ATOM      7  C   UNL d   1       5.372  -0.327   0.000  0.00  0.00     0.084 A 
ATOM      8  C   UNL d   1       5.114  -1.293   0.000  0.00  0.00     0.136 A 
ATOM      9  C   UNL d   1       3.341   2.159   0.000  0.00  0.00     0.016 C 
ATOM     10  C   UNL d   1       2.323   1.571   0.000  0.00  0.00     0.016 C 
ATOM     11  C   UNL d   1       3.456  -1.750   0.000  0.00  0.00     0.024 C 
ENDROOT
TORSDOF 0
