REMARK  0 active torsions:
REMARK  status: ('A' for Active; 'I' for Inactive)
ROOT
ATOM      1  C   UNL d   1       4.666  -0.334   0.000  0.00  0.00     0.011 A 
ATOM      2  C   UNL d   1       5.532  -0.835   0.000  0.00  0.00    -0.039 A 
ATOM      3  C   UNL d   1       5.532   0.166   0.000  0.00  0.00    -0.000 A 
ATOM      4  C   UNL d   1       3.800   0.166   0.000  0.00  0.00    -0.013 A 
ATOM      5  C   UNL d   1       5.532   1.166   0.000  0.00  0.00     0.010 A 
ATOM      6  C   UNL d   1       3.800   1.166   0.000  0.00  0.00    -0.075 A 
ATOM      7  C   UNL d   1       2.906  -0.369   0.000  0.00  0.00    -0.006 A 
ATOM      8  C   UNL d   1       4.666   1.666   0.000  0.00  0.00     0.035 A 
ATOM      9  C   UNL d   1       6.532  -0.835   0.000  0.00  0.00     0.015 C 
ATOM     10  C   UNL d   1       5.032  -1.701   0.000  0.00  0.00     0.015 C 
ATOM     11  C   UNL d   1       3.800  -0.834   0.000  0.00  0.00     0.021 C 
ATOM     12  C   UNL d   1       2.000   0.145   0.000  0.00  0.00     0.009 A 
ATOM     13  C   UNL d   1       2.906   1.701   0.000  0.00  0.00    -0.023 A 
ATOM     14  C   UNL d   1       2.000   1.187   0.000  0.00  0.00     0.028 A 
ATOM     15  C   UNL d   1       2.918  -1.369   0.000  0.00  0.00     0.011 C 
ENDROOT
TORSDOF 0
