REMARK  4 active torsions:
REMARK  status: ('A' for Active; 'I' for Inactive)
REMARK    1  A    between atoms: O_1  and  C_6 
REMARK    2  A    between atoms: O_2  and  C_8 
REMARK    3  A    between atoms: C_3  and  C_4 
REMARK    4  A    between atoms: C_4  and  C_10 
ROOT
ATOM      1  C   UNL d   1       5.135  -0.500   0.000  0.00  0.00    -0.052 A 
ATOM      2  C   UNL d   1       5.135   0.500   0.000  0.00  0.00     0.047 A 
ATOM      3  C   UNL d   1       4.269   1.000   0.000  0.00  0.00     0.101 A 
ATOM      4  C   UNL d   1       4.269  -1.000   0.000  0.00  0.00     0.010 A 
ATOM      5  C   UNL d   1       3.403   0.500   0.000  0.00  0.00     0.099 A 
ATOM      6  C   UNL d   1       3.403  -0.500   0.000  0.00  0.00     0.040 A 
ENDROOT
BRANCH   1   7
ATOM      7  C   UNL d   1       6.001  -1.000   0.000  0.00  0.00     0.065 C 
BRANCH   7   8
ATOM      8  C   UNL d   1       6.001  -2.000   0.000  0.00  0.00    -0.032 C 
ATOM      9  C   UNL d   1       6.867  -2.500   0.000  0.00  0.00     0.007 C 
ENDBRANCH   7   8
ENDBRANCH   1   7
BRANCH   3  10
ATOM     10  O   UNL d   1       4.269   2.000   0.000  0.00  0.00    -0.353 OA
ATOM     11  C   UNL d   1       5.135   2.500   0.000  0.00  0.00     0.210 C 
ENDBRANCH   3  10
BRANCH   5  12
ATOM     12  O   UNL d   1       2.537   1.000   0.000  0.00  0.00    -0.358 OA
ATOM     13  H   UNL d   1       2.000   0.690   0.000  0.00  0.00     0.217 HD
ENDBRANCH   5  12
TORSDOF 4
