REMARK  2 active torsions:
REMARK  status: ('A' for Active; 'I' for Inactive)
REMARK    1  A    between atoms: O_3  and  C_17 
REMARK    2  A    between atoms: O_4  and  C_21 
ROOT
ATOM      1  O   UNL d   1       9.373  -3.031   0.000  0.00  0.00    -0.323 OA
ATOM      2  O   UNL d   1      10.825  -2.193   0.000  0.00  0.00    -0.323 OA
ATOM      3  N   UNL d   1       7.407   1.051   0.000  0.00  0.00    -0.400 N 
ATOM      4  C   UNL d   1       7.407   0.051   0.000  0.00  0.00     0.117 A 
ATOM      5  C   UNL d   1       6.513  -0.484   0.000  0.00  0.00     0.069 A 
ATOM      6  C   UNL d   1       8.273  -0.449   0.000  0.00  0.00    -0.026 A 
ATOM      7  C   UNL d   1       8.273   1.551   0.000  0.00  0.00     0.122 A 
ATOM      8  C   UNL d   1       6.513   1.585   0.000  0.00  0.00     0.160 A 
ATOM      9  C   UNL d   1       9.139   1.051   0.000  0.00  0.00     0.058 A 
ATOM     10  C   UNL d   1       9.139   0.051   0.000  0.00  0.00    -0.045 A 
ATOM     11  C   UNL d   1       5.607   0.030   0.000  0.00  0.00    -0.045 A 
ATOM     12  C   UNL d   1       5.607   1.071   0.000  0.00  0.00     0.002 A 
ATOM     13  C   UNL d   1       8.257  -1.491   0.000  0.00  0.00     0.049 A 
ATOM     14  C   UNL d   1      10.049  -0.456   0.000  0.00  0.00     0.047 A 
ATOM     15  C   UNL d   1       4.676   1.628   0.000  0.00  0.00     0.110 A 
ATOM     16  C   UNL d   1       4.676  -0.527   0.000  0.00  0.00     0.011 A 
ATOM     17  C   UNL d   1       9.155  -2.019   0.000  0.00  0.00     0.105 A 
ATOM     18  C   UNL d   1      10.057  -1.498   0.000  0.00  0.00     0.105 A 
ATOM     19  C   UNL d   1       3.732   1.093   0.000  0.00  0.00     0.102 A 
ATOM     20  C   UNL d   1       3.732   0.008   0.000  0.00  0.00     0.040 A 
ATOM     21  C   UNL d   1      10.403  -3.138   0.000  0.00  0.00     0.352 A 
ENDROOT
BRANCH  15  22
ATOM     22  O   UNL d   1       4.687   2.628   0.000  0.00  0.00    -0.352 OA
ATOM     23  C   UNL d   1       3.827   3.138   0.000  0.00  0.00     0.210 C 
ENDBRANCH  15  22
BRANCH  19  24
ATOM     24  O   UNL d   1       2.868   1.596   0.000  0.00  0.00    -0.353 OA
ATOM     25  C   UNL d   1       2.000   1.100   0.000  0.00  0.00     0.210 C 
ENDBRANCH  19  24
TORSDOF 2
