REMARK  6 active torsions:
REMARK  status: ('A' for Active; 'I' for Inactive)
REMARK    1  A    between atoms: O_2  and  C_12 
REMARK    2  A    between atoms: O_4  and  C_15 
REMARK    3  A    between atoms: O_6  and  C_21 
REMARK    4  A    between atoms: C_7  and  C_13 
REMARK    5  A    between atoms: C_8  and  C_12 
REMARK    6  A    between atoms: C_9  and  C_15 
ROOT
ATOM      1  O   UNL d   1       3.912   2.801   0.000  0.00  0.00    -0.359 OA
ATOM      2  O   UNL d   1       2.000   2.296   0.000  0.00  0.00    -0.290 OA
ATOM      3  C   UNL d   1       5.789   0.344   0.000  0.00  0.00     0.076 A 
ATOM      4  C   UNL d   1       4.390   0.853   0.000  0.00  0.00     0.109 A 
ATOM      5  C   UNL d   1       6.048   1.310   0.000  0.00  0.00     0.132 A 
ATOM      6  C   UNL d   1       4.649   1.819   0.000  0.00  0.00     0.211 A 
ATOM      7  C   UNL d   1       3.169  -0.013   0.000  0.00  0.00     0.017 A 
ATOM      8  C   UNL d   1       2.616   1.508   0.000  0.00  0.00     0.178 A 
ATOM      9  C   UNL d   1       2.340   0.546   0.000  0.00  0.00     0.052 A 
ENDROOT
BRANCH   3  10
ATOM     10  C   UNL d   1       6.289  -0.522   0.000  0.00  0.00    -0.050 A 
ATOM     11  C   UNL d   1       7.289  -0.522   0.000  0.00  0.00     0.010 A 
ATOM     12  C   UNL d   1       7.789  -1.388   0.000  0.00  0.00     0.037 A 
ATOM     13  C   UNL d   1       7.289  -2.254   0.000  0.00  0.00     0.065 A 
ATOM     14  C   UNL d   1       6.289  -2.254   0.000  0.00  0.00     0.037 A 
ATOM     15  C   UNL d   1       5.789  -1.388   0.000  0.00  0.00     0.010 A 
BRANCH  13  16
ATOM     16  O   UNL d   1       7.789  -3.120   0.000  0.00  0.00    -0.361 OA
ATOM     17  H   UNL d   1       8.409  -3.120   0.000  0.00  0.00     0.217 HD
ENDBRANCH  13  16
ENDBRANCH   3  10
BRANCH   4  18
ATOM     18  C   UNL d   1       4.131  -0.113   0.000  0.00  0.00     0.207 C 
BRANCH  18  19
ATOM     19  O   UNL d   1       4.838  -0.820   0.000  0.00  0.00    -0.398 OA
ATOM     20  H   UNL d   1       4.678  -1.419   0.000  0.00  0.00     0.209 HD
ENDBRANCH  18  19
ENDBRANCH   4  18
BRANCH   5  21
ATOM     21  C   UNL d   1       6.914   1.810   0.000  0.00  0.00     0.147 C 
ATOM     22  O   UNL d   1       7.780   1.310   0.000  0.00  0.00    -0.650 OA
BRANCH  21  23
ATOM     23  O   UNL d   1       6.914   2.810   0.000  0.00  0.00    -0.776 OA
ATOM     24  H   UNL d   1       7.451   3.120   0.000  0.00  0.00     0.167 HD
ENDBRANCH  21  23
ENDBRANCH   5  21
TORSDOF 6
