REMARK  3 active torsions:
REMARK  status: ('A' for Active; 'I' for Inactive)
REMARK    1  A    between atoms: C_6  and  O_1 
REMARK    2  A    between atoms: O_2  and  C_14 
REMARK    3  A    between atoms: C_11  and  C_14 
ROOT
ATOM      1  N   UNL d   1       2.000  -1.372   0.000  0.00  0.00    -0.271 NA
ATOM      2  C   UNL d   1       4.678  -1.677   0.000  0.00  0.00     0.045 A 
ATOM      3  C   UNL d   1       5.262  -0.872   0.000  0.00  0.00     0.130 A 
ATOM      4  C   UNL d   1       4.678  -0.068   0.000  0.00  0.00     0.072 A 
ATOM      5  C   UNL d   1       3.732  -1.372   0.000  0.00  0.00    -0.027 A 
ATOM      6  C   UNL d   1       3.732  -0.372   0.000  0.00  0.00    -0.030 A 
ATOM      7  C   UNL d   1       4.989  -2.628   0.000  0.00  0.00     0.017 C 
ATOM      8  C   UNL d   1       2.866   0.128   0.000  0.00  0.00     0.064 A 
ATOM      9  C   UNL d   1       2.866  -1.872   0.000  0.00  0.00     0.124 A 
ATOM     10  C   UNL d   1       2.000  -0.372   0.000  0.00  0.00     0.134 A 
ENDROOT
BRANCH   8  11
ATOM     11  C   UNL d   1       2.866   1.128   0.000  0.00  0.00     0.294 C 
ATOM     12  O   UNL d   1       3.732   1.628   0.000  0.00  0.00    -0.259 OA
BRANCH  11  13
ATOM     13  O   UNL d   1       2.000   1.628   0.000  0.00  0.00    -0.322 OA
ATOM     14  C   UNL d   1       2.000   2.628   0.000  0.00  0.00     0.213 C 
ENDBRANCH  11  13
ENDBRANCH   8  11
BRANCH   3  15
ATOM     15  O   UNL d   1       6.262  -0.872   0.000  0.00  0.00    -0.395 OA
ATOM     16  H   UNL d   1       6.572  -0.335   0.000  0.00  0.00     0.210 HD
ENDBRANCH   3  15
TORSDOF 3
