REMARK  11 active torsions:
REMARK  status: ('A' for Active; 'I' for Inactive)
REMARK    1  A    between atoms: C_14  and  O_3 
REMARK    2  A    between atoms: O_5  and  C_20 
REMARK    3  A    between atoms: C_26  and  O_6 
REMARK    4  A    between atoms: O_7  and  C_28 
REMARK    5  A    between atoms: O_8  and  C_33 
REMARK    6  A    between atoms: O_9  and  C_35 
REMARK    7  A    between atoms: O_10  and  C_37 
REMARK    8  A    between atoms: O_11  and  C_40 
REMARK    9  A    between atoms: O_12  and  C_42 
REMARK   10  A    between atoms: C_15  and  C_21 
REMARK   11  A    between atoms: C_27  and  C_34 
ROOT
ATOM      1  O   UNL d   1       8.379   0.864   0.000  0.00  0.00    -0.306 OA
ATOM      2  O   UNL d   1      11.844   0.978   0.000  0.00  0.00    -0.306 OA
ATOM      3  O   UNL d   1       6.097  -2.038   0.000  0.00  0.00    -0.338 OA
ATOM      4  C   UNL d   1      10.153   0.210   0.000  0.00  0.00     0.097 A 
ATOM      5  C   UNL d   1       9.675   2.158   0.000  0.00  0.00     0.199 A 
ATOM      6  C   UNL d   1      10.412   1.176   0.000  0.00  0.00     0.231 A 
ATOM      7  C   UNL d   1       8.932  -0.656   0.000  0.00  0.00     0.021 A 
ATOM      8  C   UNL d   1      11.425  -0.585   0.000  0.00  0.00     0.020 A 
ATOM      9  C   UNL d   1       8.103  -0.097   0.000  0.00  0.00     0.085 A 
ATOM     10  C   UNL d   1      12.202   0.044   0.000  0.00  0.00     0.085 A 
ATOM     11  C   UNL d   1       8.876  -1.696   0.000  0.00  0.00     0.084 A 
ATOM     12  C   UNL d   1       7.943  -2.160   0.000  0.00  0.00     0.012 A 
ATOM     13  C   UNL d   1       7.884  -3.243   0.000  0.00  0.00     0.079 A 
ATOM     14  C   UNL d   1       7.079  -1.577   0.000  0.00  0.00     0.081 A 
ATOM     15  C   UNL d   1       7.160  -0.539   0.000  0.00  0.00     0.075 A 
ATOM     16  C   UNL d   1       6.912  -3.727   0.000  0.00  0.00     0.156 A 
ATOM     17  C   UNL d   1       6.013  -3.120   0.000  0.00  0.00     0.191 A 
ATOM     18  C   UNL d   1      11.572  -1.616   0.000  0.00  0.00     0.078 A 
ATOM     19  C   UNL d   1      13.180  -0.314   0.000  0.00  0.00     0.074 A 
ATOM     20  C   UNL d   1      12.542  -1.997   0.000  0.00  0.00     0.073 A 
ATOM     21  C   UNL d   1      13.351  -1.341   0.000  0.00  0.00     0.071 A 
ENDROOT
BRANCH   6  22
ATOM     22  C   UNL d   1      10.671   2.142   0.000  0.00  0.00     0.010 A 
ATOM     23  C   UNL d   1      11.637   2.400   0.000  0.00  0.00     0.052 A 
ATOM     24  C   UNL d   1      11.896   3.366   0.000  0.00  0.00     0.099 A 
ATOM     25  C   UNL d   1      11.189   4.073   0.000  0.00  0.00     0.098 A 
ATOM     26  C   UNL d   1      10.223   3.814   0.000  0.00  0.00     0.040 A 
ATOM     27  C   UNL d   1       9.964   2.849   0.000  0.00  0.00     0.015 A 
BRANCH  24  28
ATOM     28  O   UNL d   1      12.862   3.625   0.000  0.00  0.00    -0.358 OA
ATOM     29  H   UNL d   1      13.022   4.224   0.000  0.00  0.00     0.217 HD
ENDBRANCH  24  28
BRANCH  25  30
ATOM     30  O   UNL d   1      11.447   5.039   0.000  0.00  0.00    -0.358 OA
ATOM     31  H   UNL d   1      11.009   5.478   0.000  0.00  0.00     0.217 HD
ENDBRANCH  25  30
ENDBRANCH   6  22
BRANCH   5  32
ATOM     32  O   UNL d   1       9.175   3.024   0.000  0.00  0.00    -0.389 OA
ATOM     33  H   UNL d   1       8.556   3.024   0.000  0.00  0.00     0.210 HD
ENDBRANCH   5  32
BRANCH  11  34
ATOM     34  O   UNL d   1       9.711  -2.246   0.000  0.00  0.00    -0.359 OA
ATOM     35  H   UNL d   1       9.675  -2.865   0.000  0.00  0.00     0.217 HD
ENDBRANCH  11  34
BRANCH  18  36
ATOM     36  O   UNL d   1      10.788  -2.236   0.000  0.00  0.00    -0.360 OA
ATOM     37  H   UNL d   1      10.878  -2.850   0.000  0.00  0.00     0.217 HD
ENDBRANCH  18  36
BRANCH  21  38
ATOM     38  O   UNL d   1      14.286  -1.696   0.000  0.00  0.00    -0.361 OA
ATOM     39  H   UNL d   1      14.766  -1.304   0.000  0.00  0.00     0.217 HD
ENDBRANCH  21  38
BRANCH  17  40
ATOM     40  C   UNL d   1       5.112  -3.555   0.000  0.00  0.00    -0.024 A 
ATOM     41  C   UNL d   1       4.286  -2.992   0.000  0.00  0.00     0.049 A 
ATOM     42  C   UNL d   1       3.385  -3.427   0.000  0.00  0.00     0.099 A 
ATOM     43  C   UNL d   1       3.312  -4.424   0.000  0.00  0.00     0.098 A 
ATOM     44  C   UNL d   1       4.138  -4.987   0.000  0.00  0.00     0.040 A 
ATOM     45  C   UNL d   1       5.039  -4.552   0.000  0.00  0.00     0.013 A 
BRANCH  42  46
ATOM     46  O   UNL d   1       2.558  -2.865   0.000  0.00  0.00    -0.358 OA
ATOM     47  H   UNL d   1       2.000  -3.134   0.000  0.00  0.00     0.217 HD
ENDBRANCH  42  46
BRANCH  43  48
ATOM     48  O   UNL d   1       2.411  -4.859   0.000  0.00  0.00    -0.358 OA
ATOM     49  H   UNL d   1       2.365  -5.478   0.000  0.00  0.00     0.217 HD
ENDBRANCH  43  48
ENDBRANCH  17  40
BRANCH  16  50
ATOM     50  O   UNL d   1       6.847  -4.724   0.000  0.00  0.00    -0.392 OA
ATOM     51  H   UNL d   1       7.362  -5.069   0.000  0.00  0.00     0.210 HD
ENDBRANCH  16  50
TORSDOF 11
