REMARK  2 active torsions:
REMARK  status: ('A' for Active; 'I' for Inactive)
REMARK    1  A    between atoms: O_1  and  C_2 
REMARK    2  A    between atoms: C_4  and  C_9 
ROOT
ATOM      1  C   UNL d   1       3.732  -0.750   0.000  0.00  0.00     0.069 A 
ATOM      2  C   UNL d   1       3.732   0.250   0.000  0.00  0.00     0.047 A 
ATOM      3  C   UNL d   1       2.866   0.750   0.000  0.00  0.00    -0.001 A 
ATOM      4  C   UNL d   1       2.866  -1.250   0.000  0.00  0.00     0.017 A 
ATOM      5  C   UNL d   1       2.000   0.250   0.000  0.00  0.00     0.006 A 
ATOM      6  C   UNL d   1       2.000  -0.750   0.000  0.00  0.00     0.007 A 
ATOM      7  C   UNL d   1       4.626  -1.285   0.000  0.00  0.00     0.043 A 
ATOM      8  C   UNL d   1       4.626   0.785   0.000  0.00  0.00    -0.016 A 
ATOM      9  C   UNL d   1       5.532  -0.771   0.000  0.00  0.00     0.036 A 
ATOM     10  C   UNL d   1       2.866  -2.250   0.000  0.00  0.00     0.013 C 
ATOM     11  C   UNL d   1       5.532   0.271   0.000  0.00  0.00    -0.087 A 
ATOM     12  C   UNL d   1       6.396   0.774   0.000  0.00  0.00     0.043 C 
ENDROOT
BRANCH   3  13
ATOM     13  C   UNL d   1       2.866   1.750   0.000  0.00  0.00    -0.018 C 
ATOM     14  C   UNL d   1       2.000   2.250   0.000  0.00  0.00     0.010 C 
ATOM     15  C   UNL d   1       3.732   2.250   0.000  0.00  0.00     0.010 C 
ENDBRANCH   3  13
BRANCH   1  16
ATOM     16  O   UNL d   1       3.732  -1.750   0.000  0.00  0.00    -0.389 OA
ATOM     17  H   UNL d   1       4.269  -2.060   0.000  0.00  0.00     0.210 HD
ENDBRANCH   1  16
TORSDOF 2
