REMARK  5 active torsions:
REMARK  status: ('A' for Active; 'I' for Inactive)
REMARK    1  A    between atoms: O_2  and  C_13 
REMARK    2  A    between atoms: O_4  and  C_16 
REMARK    3  A    between atoms: O_5  and  C_19 
REMARK    4  A    between atoms: O_6  and  C_21 
REMARK    5  A    between atoms: C_9  and  C_10 
ROOT
ATOM      1  O   UNL d   1       6.068  -0.270   0.000  0.00  0.00    -0.309 OA
ATOM      2  O   UNL d   1       6.068   2.730   0.000  0.00  0.00    -0.287 OA
ATOM      3  C   UNL d   1       5.202   1.230   0.000  0.00  0.00     0.081 A 
ATOM      4  C   UNL d   1       5.202   0.230   0.000  0.00  0.00     0.095 A 
ATOM      5  C   UNL d   1       6.934   0.230   0.000  0.00  0.00     0.090 A 
ATOM      6  C   UNL d   1       6.068   1.730   0.000  0.00  0.00     0.190 A 
ATOM      7  C   UNL d   1       6.934   1.230   0.000  0.00  0.00     0.094 A 
ATOM      8  C   UNL d   1       4.308   1.764   0.000  0.00  0.00     0.085 A 
ATOM      9  C   UNL d   1       4.308  -0.305   0.000  0.00  0.00     0.075 A 
ATOM     10  C   UNL d   1       3.402   0.209   0.000  0.00  0.00     0.071 A 
ATOM     11  C   UNL d   1       3.402   1.250   0.000  0.00  0.00     0.074 A 
ENDROOT
BRANCH   5  12
ATOM     12  C   UNL d   1       7.800  -0.270   0.000  0.00  0.00     0.001 A 
ATOM     13  C   UNL d   1       7.800  -1.270   0.000  0.00  0.00     0.053 A 
ATOM     14  C   UNL d   1       8.666  -1.770   0.000  0.00  0.00     0.099 A 
ATOM     15  C   UNL d   1       9.532  -1.270   0.000  0.00  0.00     0.098 A 
ATOM     16  C   UNL d   1       9.532  -0.270   0.000  0.00  0.00     0.040 A 
ATOM     17  C   UNL d   1       8.666   0.230   0.000  0.00  0.00     0.017 A 
BRANCH  14  18
ATOM     18  O   UNL d   1       8.666  -2.770   0.000  0.00  0.00    -0.358 OA
ATOM     19  H   UNL d   1       8.129  -3.080   0.000  0.00  0.00     0.217 HD
ENDBRANCH  14  18
BRANCH  15  20
ATOM     20  O   UNL d   1      10.398  -1.770   0.000  0.00  0.00    -0.358 OA
ATOM     21  H   UNL d   1      10.935  -1.460   0.000  0.00  0.00     0.217 HD
ENDBRANCH  15  20
ENDBRANCH   5  12
BRANCH   8  22
ATOM     22  O   UNL d   1       4.320   2.764   0.000  0.00  0.00    -0.360 OA
ATOM     23  H   UNL d   1       3.787   3.080   0.000  0.00  0.00     0.217 HD
ENDBRANCH   8  22
BRANCH  10  24
ATOM     24  O   UNL d   1       2.538  -0.294   0.000  0.00  0.00    -0.361 OA
ATOM     25  H   UNL d   1       2.000   0.013   0.000  0.00  0.00     0.217 HD
ENDBRANCH  10  24
TORSDOF 5
