REMARK  19 active torsions:
REMARK  status: ('A' for Active; 'I' for Inactive)
REMARK    1  A    between atoms: C_13  and  O_1 
REMARK    2  A    between atoms: O_1  and  C_17 
REMARK    3  A    between atoms: C_14  and  O_2 
REMARK    4  A    between atoms: O_2  and  C_18 
REMARK    5  A    between atoms: O_3  and  C_15 
REMARK    6  A    between atoms: O_4  and  C_16 
REMARK    7  A    between atoms: O_9  and  C_29 
REMARK    8  A    between atoms: O_10  and  C_30 
REMARK    9  A    between atoms: O_11  and  C_33 
REMARK   10  A    between atoms: O_12  and  C_34 
REMARK   11  A    between atoms: C_13  and  C_14 
REMARK   12  A    between atoms: C_13  and  C_15 
REMARK   13  A    between atoms: C_14  and  C_16 
REMARK   14  A    between atoms: C_17  and  C_21 
REMARK   15  A    between atoms: C_18  and  C_22 
REMARK   16  A    between atoms: C_19  and  C_23 
REMARK   17  A    between atoms: C_20  and  C_24 
REMARK   18  A    between atoms: C_21  and  C_23 
REMARK   19  A    between atoms: C_22  and  C_24 
ROOT
ATOM      1  C   UNL d   1       6.867   0.250   0.000  0.00  0.00     0.269 C 
ENDROOT
BRANCH   1   2
ATOM      2  O   UNL d   1       6.867   1.250   0.000  0.00  0.00    -0.299 OA
BRANCH   2   3
ATOM      3  C   UNL d   1       7.733   1.750   0.000  0.00  0.00     0.283 C 
ATOM      4  O   UNL d   1       8.599   1.250   0.000  0.00  0.00    -0.260 OA
BRANCH   3   5
ATOM      5  C   UNL d   1       7.733   2.750   0.000  0.00  0.00     0.083 C 
BRANCH   5   6
ATOM      6  C   UNL d   1       8.599   3.250   0.000  0.00  0.00     0.017 C 
BRANCH   6   7
ATOM      7  C   UNL d   1       8.599   4.250   0.000  0.00  0.00    -0.033 A 
ATOM      8  C   UNL d   1       9.465   4.750   0.000  0.00  0.00     0.050 A 
ATOM      9  C   UNL d   1       9.465   5.750   0.000  0.00  0.00     0.099 A 
ATOM     10  C   UNL d   1       8.599   6.250   0.000  0.00  0.00     0.098 A 
ATOM     11  C   UNL d   1       7.733   5.750   0.000  0.00  0.00     0.040 A 
ATOM     12  C   UNL d   1       7.733   4.750   0.000  0.00  0.00     0.014 A 
BRANCH   9  13
ATOM     13  O   UNL d   1      10.331   6.250   0.000  0.00  0.00    -0.358 OA
ATOM     14  H   UNL d   1      10.868   5.940   0.000  0.00  0.00     0.217 HD
ENDBRANCH   9  13
BRANCH  10  15
ATOM     15  O   UNL d   1       8.599   7.250   0.000  0.00  0.00    -0.358 OA
ATOM     16  H   UNL d   1       8.062   7.560   0.000  0.00  0.00     0.217 HD
ENDBRANCH  10  15
ENDBRANCH   6   7
ENDBRANCH   5   6
ENDBRANCH   3   5
ENDBRANCH   2   3
ENDBRANCH   1   2
BRANCH   1  17
ATOM     17  C   UNL d   1       6.001  -0.250   0.000  0.00  0.00     0.269 C 
BRANCH  17  18
ATOM     18  O   UNL d   1       6.001  -1.250   0.000  0.00  0.00    -0.299 OA
BRANCH  18  19
ATOM     19  C   UNL d   1       5.135  -1.750   0.000  0.00  0.00     0.283 C 
ATOM     20  O   UNL d   1       4.269  -1.250   0.000  0.00  0.00    -0.260 OA
BRANCH  19  21
ATOM     21  C   UNL d   1       5.135  -2.750   0.000  0.00  0.00     0.083 C 
BRANCH  21  22
ATOM     22  C   UNL d   1       4.269  -3.250   0.000  0.00  0.00     0.017 C 
BRANCH  22  23
ATOM     23  C   UNL d   1       4.269  -4.250   0.000  0.00  0.00    -0.033 A 
ATOM     24  C   UNL d   1       3.403  -4.750   0.000  0.00  0.00     0.050 A 
ATOM     25  C   UNL d   1       3.403  -5.750   0.000  0.00  0.00     0.099 A 
ATOM     26  C   UNL d   1       4.269  -6.250   0.000  0.00  0.00     0.098 A 
ATOM     27  C   UNL d   1       5.135  -5.750   0.000  0.00  0.00     0.040 A 
ATOM     28  C   UNL d   1       5.135  -4.750   0.000  0.00  0.00     0.014 A 
BRANCH  25  29
ATOM     29  O   UNL d   1       2.537  -6.250   0.000  0.00  0.00    -0.358 OA
ATOM     30  H   UNL d   1       2.000  -5.940   0.000  0.00  0.00     0.217 HD
ENDBRANCH  25  29
BRANCH  26  31
ATOM     31  O   UNL d   1       4.269  -7.250   0.000  0.00  0.00    -0.358 OA
ATOM     32  H   UNL d   1       4.806  -7.560   0.000  0.00  0.00     0.217 HD
ENDBRANCH  26  31
ENDBRANCH  22  23
ENDBRANCH  21  22
ENDBRANCH  19  21
ENDBRANCH  18  19
ENDBRANCH  17  18
BRANCH  17  33
ATOM     33  C   UNL d   1       5.135   0.250   0.000  0.00  0.00     0.173 C 
ATOM     34  O   UNL d   1       4.269  -0.250   0.000  0.00  0.00    -0.648 OA
BRANCH  33  35
ATOM     35  O   UNL d   1       5.135   1.250   0.000  0.00  0.00    -0.774 OA
ATOM     36  H   UNL d   1       4.598   1.560   0.000  0.00  0.00     0.167 HD
ENDBRANCH  33  35
ENDBRANCH  17  33
ENDBRANCH   1  17
BRANCH   1  37
ATOM     37  C   UNL d   1       7.733  -0.250   0.000  0.00  0.00     0.173 C 
ATOM     38  O   UNL d   1       7.733  -1.250   0.000  0.00  0.00    -0.648 OA
BRANCH  37  39
ATOM     39  O   UNL d   1       8.599   0.250   0.000  0.00  0.00    -0.774 OA
ATOM     40  H   UNL d   1       9.136  -0.060   0.000  0.00  0.00     0.167 HD
ENDBRANCH  37  39
ENDBRANCH   1  37
TORSDOF 19
