REMARK  9 active torsions:
REMARK  status: ('A' for Active; 'I' for Inactive)
REMARK    1  A    between atoms: O_3  and  C_17 
REMARK    2  A    between atoms: O_4  and  C_18 
REMARK    3  A    between atoms: O_5  and  C_19 
REMARK    4  A    between atoms: O_7  and  C_32 
REMARK    5  A    between atoms: O_9  and  C_36 
REMARK    6  A    between atoms: O_10  and  C_40 
REMARK    7  A    between atoms: C_11  and  C_13 
REMARK    8  A    between atoms: C_15  and  C_20 
REMARK    9  A    between atoms: C_22  and  C_29 
ROOT
ATOM      1  O   UNL d   1       6.029   2.001   0.000  0.00  0.00    -0.308 OA
ATOM      2  O   UNL d   1       6.017   5.070   0.000  0.00  0.00    -0.287 OA
ATOM      3  C   UNL d   1       4.269   2.036   0.000  0.00  0.00     0.045 A 
ATOM      4  C   UNL d   1       5.135   2.536   0.000  0.00  0.00     0.107 A 
ATOM      5  C   UNL d   1       5.135   3.536   0.000  0.00  0.00     0.082 A 
ATOM      6  C   UNL d   1       3.403   2.536   0.000  0.00  0.00     0.082 A 
ATOM      7  C   UNL d   1       4.269   4.036   0.000  0.00  0.00     0.085 A 
ATOM      8  C   UNL d   1       3.403   3.536   0.000  0.00  0.00     0.075 A 
ATOM      9  C   UNL d   1       6.935   2.515   0.000  0.00  0.00     0.090 A 
ATOM     10  C   UNL d   1       6.029   4.070   0.000  0.00  0.00     0.190 A 
ATOM     11  C   UNL d   1       6.935   3.557   0.000  0.00  0.00     0.094 A 
ENDROOT
BRANCH   3  12
ATOM     12  C   UNL d   1       4.269   1.036   0.000  0.00  0.00     0.014 A 
ATOM     13  C   UNL d   1       5.135   0.536   0.000  0.00  0.00     0.029 A 
ATOM     14  C   UNL d   1       5.135  -0.464   0.000  0.00  0.00    -0.001 A 
ATOM     15  C   UNL d   1       4.269  -0.964   0.000  0.00  0.00     0.017 A 
ATOM     16  C   UNL d   1       3.403  -0.464   0.000  0.00  0.00     0.038 A 
ATOM     17  C   UNL d   1       3.403   0.536   0.000  0.00  0.00     0.076 A 
BRANCH  14  18
ATOM     18  C   UNL d   1       6.001  -0.964   0.000  0.00  0.00     0.090 A 
ATOM     19  O   UNL d   1       6.001  -1.964   0.000  0.00  0.00    -0.309 OA
ATOM     20  C   UNL d   1       6.867  -2.464   0.000  0.00  0.00     0.095 A 
ATOM     21  C   UNL d   1       7.733  -1.964   0.000  0.00  0.00     0.081 A 
ATOM     22  C   UNL d   1       6.851  -3.506   0.000  0.00  0.00     0.075 A 
ATOM     23  C   UNL d   1       7.733  -0.964   0.000  0.00  0.00     0.190 A 
ATOM     24  C   UNL d   1       8.643  -2.471   0.000  0.00  0.00     0.085 A 
ATOM     25  O   UNL d   1       8.599  -0.464   0.000  0.00  0.00    -0.287 OA
ATOM     26  C   UNL d   1       6.867  -0.464   0.000  0.00  0.00     0.094 A 
ATOM     27  C   UNL d   1       8.651  -3.513   0.000  0.00  0.00     0.074 A 
ATOM     28  C   UNL d   1       7.749  -4.034   0.000  0.00  0.00     0.071 A 
BRANCH  24  29
ATOM     29  O   UNL d   1       9.503  -1.961   0.000  0.00  0.00    -0.360 OA
ATOM     30  H   UNL d   1      10.044  -2.265   0.000  0.00  0.00     0.217 HD
ENDBRANCH  24  29
BRANCH  28  31
ATOM     31  O   UNL d   1       7.745  -5.034   0.000  0.00  0.00    -0.361 OA
ATOM     32  H   UNL d   1       8.281  -5.346   0.000  0.00  0.00     0.217 HD
ENDBRANCH  28  31
ENDBRANCH  14  18
BRANCH  17  33
ATOM     33  O   UNL d   1       2.537   1.036   0.000  0.00  0.00    -0.360 OA
ATOM     34  H   UNL d   1       2.000   0.726   0.000  0.00  0.00     0.217 HD
ENDBRANCH  17  33
ENDBRANCH   3  12
BRANCH   6  35
ATOM     35  O   UNL d   1       2.537   2.036   0.000  0.00  0.00    -0.360 OA
ATOM     36  H   UNL d   1       2.000   2.346   0.000  0.00  0.00     0.217 HD
ENDBRANCH   6  35
BRANCH   9  37
ATOM     37  C   UNL d   1       7.799   2.011   0.000  0.00  0.00    -0.002 A 
ATOM     38  C   UNL d   1       8.667   2.508   0.000  0.00  0.00     0.017 A 
ATOM     39  C   UNL d   1       9.531   2.005   0.000  0.00  0.00     0.037 A 
ATOM     40  C   UNL d   1       9.527   1.005   0.000  0.00  0.00     0.065 A 
ATOM     41  C   UNL d   1       8.659   0.508   0.000  0.00  0.00     0.037 A 
ATOM     42  C   UNL d   1       7.795   1.012   0.000  0.00  0.00     0.017 A 
BRANCH  40  43
ATOM     43  O   UNL d   1      10.391   0.501   0.000  0.00  0.00    -0.361 OA
ATOM     44  H   UNL d   1      10.930   0.809   0.000  0.00  0.00     0.217 HD
ENDBRANCH  40  43
ENDBRANCH   9  37
BRANCH   7  45
ATOM     45  O   UNL d   1       4.269   5.036   0.000  0.00  0.00    -0.360 OA
ATOM     46  H   UNL d   1       3.732   5.346   0.000  0.00  0.00     0.217 HD
ENDBRANCH   7  45
TORSDOF 9
