REMARK  3 active torsions:
REMARK  status: ('A' for Active; 'I' for Inactive)
REMARK    1  A    between atoms: O_2  and  C_10 
REMARK    2  A    between atoms: O_4  and  C_13 
REMARK    3  A    between atoms: C_7  and  C_9 
ROOT
ATOM      1  O   UNL d   1       6.068  -0.925   0.000  0.00  0.00    -0.309 OA
ATOM      2  O   UNL d   1       6.068   2.075   0.000  0.00  0.00    -0.287 OA
ATOM      3  C   UNL d   1       5.202   0.575   0.000  0.00  0.00     0.081 A 
ATOM      4  C   UNL d   1       5.202  -0.425   0.000  0.00  0.00     0.095 A 
ATOM      5  C   UNL d   1       6.934  -0.425   0.000  0.00  0.00     0.090 A 
ATOM      6  C   UNL d   1       6.068   1.075   0.000  0.00  0.00     0.190 A 
ATOM      7  C   UNL d   1       4.308   1.109   0.000  0.00  0.00     0.085 A 
ATOM      8  C   UNL d   1       6.934   0.575   0.000  0.00  0.00     0.094 A 
ATOM      9  C   UNL d   1       4.308  -0.960   0.000  0.00  0.00     0.075 A 
ATOM     10  C   UNL d   1       3.402  -0.446   0.000  0.00  0.00     0.071 A 
ATOM     11  C   UNL d   1       3.402   0.595   0.000  0.00  0.00     0.074 A 
ENDROOT
BRANCH   5  12
ATOM     12  C   UNL d   1       7.800  -0.925   0.000  0.00  0.00    -0.002 A 
ATOM     13  C   UNL d   1       7.800  -1.925   0.000  0.00  0.00     0.014 A 
ATOM     14  C   UNL d   1       8.666  -2.425   0.000  0.00  0.00     0.001 A 
ATOM     15  C   UNL d   1       9.532  -1.925   0.000  0.00  0.00     0.000 A 
ATOM     16  C   UNL d   1       9.532  -0.925   0.000  0.00  0.00     0.001 A 
ATOM     17  C   UNL d   1       8.666  -0.425   0.000  0.00  0.00     0.014 A 
ENDBRANCH   5  12
BRANCH   7  18
ATOM     18  O   UNL d   1       4.320   2.109   0.000  0.00  0.00    -0.360 OA
ATOM     19  H   UNL d   1       3.787   2.425   0.000  0.00  0.00     0.217 HD
ENDBRANCH   7  18
BRANCH  10  20
ATOM     20  O   UNL d   1       2.538  -0.950   0.000  0.00  0.00    -0.361 OA
ATOM     21  H   UNL d   1       2.000  -0.642   0.000  0.00  0.00     0.217 HD
ENDBRANCH  10  20
TORSDOF 3
