REMARK  14 active torsions:
REMARK  status: ('A' for Active; 'I' for Inactive)
REMARK    1  A    between atoms: C_15  and  O_1 
REMARK    2  A    between atoms: C_18  and  O_1 
REMARK    3  A    between atoms: C_16  and  O_4 
REMARK    4  A    between atoms: C_20  and  O_5 
REMARK    5  A    between atoms: O_5  and  C_27 
REMARK    6  A    between atoms: C_17  and  O_6 
REMARK    7  A    between atoms: C_19  and  O_7 
REMARK    8  A    between atoms: C_22  and  O_8 
REMARK    9  A    between atoms: C_23  and  O_9 
REMARK   10  A    between atoms: O_10  and  C_25 
REMARK   11  A    between atoms: O_12  and  C_31 
REMARK   12  A    between atoms: O_14  and  C_41 
REMARK   13  A    between atoms: C_21  and  C_25 
REMARK   14  A    between atoms: C_34  and  C_36 
ROOT
ATOM      1  O   UNL d   1       5.135  -1.680   0.000  0.00  0.00    -0.348 OA
ATOM      2  C   UNL d   1       6.001  -3.180   0.000  0.00  0.00     0.211 A 
ATOM      3  C   UNL d   1       5.135  -3.680   0.000  0.00  0.00     0.183 A 
ATOM      4  C   UNL d   1       4.269  -3.180   0.000  0.00  0.00     0.180 A 
ATOM      5  C   UNL d   1       6.001  -2.180   0.000  0.00  0.00     0.298 A 
ATOM      6  C   UNL d   1       4.269  -2.180   0.000  0.00  0.00     0.179 A 
ENDROOT
BRANCH   5   7
ATOM      7  O   UNL d   1       6.867  -1.680   0.000  0.00  0.00    -0.318 OA
BRANCH   7   8
ATOM      8  C   UNL d   1       6.867  -0.680   0.000  0.00  0.00     0.077 A 
ATOM      9  C   UNL d   1       7.767  -0.155   0.000  0.00  0.00     0.075 A 
ATOM     10  C   UNL d   1       7.755   0.886   0.000  0.00  0.00     0.095 A 
ATOM     11  O   UNL d   1       8.623   1.383   0.000  0.00  0.00    -0.309 OA
ATOM     12  C   UNL d   1       6.891   1.390   0.000  0.00  0.00     0.081 A 
ATOM     13  C   UNL d   1       8.627   2.383   0.000  0.00  0.00     0.090 A 
ATOM     14  C   UNL d   1       7.763   2.886   0.000  0.00  0.00     0.094 A 
ATOM     15  C   UNL d   1       6.895   2.390   0.000  0.00  0.00     0.190 A 
ATOM     16  O   UNL d   1       6.031   2.893   0.000  0.00  0.00    -0.287 OA
ATOM     17  C   UNL d   1       5.979   0.886   0.000  0.00  0.00     0.085 A 
ATOM     18  C   UNL d   1       5.967  -0.155   0.000  0.00  0.00     0.074 A 
BRANCH  13  19
ATOM     19  C   UNL d   1       9.495   2.880   0.000  0.00  0.00    -0.002 A 
ATOM     20  C   UNL d   1       9.499   3.880   0.000  0.00  0.00     0.017 A 
ATOM     21  C   UNL d   1      10.367   4.376   0.000  0.00  0.00     0.037 A 
ATOM     22  C   UNL d   1      11.231   3.873   0.000  0.00  0.00     0.065 A 
ATOM     23  C   UNL d   1      11.227   2.873   0.000  0.00  0.00     0.037 A 
ATOM     24  C   UNL d   1      10.359   2.376   0.000  0.00  0.00     0.017 A 
BRANCH  22  25
ATOM     25  O   UNL d   1      12.099   4.370   0.000  0.00  0.00    -0.361 OA
ATOM     26  H   UNL d   1      12.101   4.990   0.000  0.00  0.00     0.217 HD
ENDBRANCH  22  25
ENDBRANCH  13  19
BRANCH  17  27
ATOM     27  O   UNL d   1       5.121   1.400   0.000  0.00  0.00    -0.360 OA
ATOM     28  H   UNL d   1       4.579   1.098   0.000  0.00  0.00     0.217 HD
ENDBRANCH  17  27
ENDBRANCH   7   8
ENDBRANCH   5   7
BRANCH   2  29
ATOM     29  O   UNL d   1       6.867  -3.680   0.000  0.00  0.00    -0.346 OA
BRANCH  29  30
ATOM     30  C   UNL d   1       7.733  -3.180   0.000  0.00  0.00     0.292 A 
ATOM     31  O   UNL d   1       7.733  -2.180   0.000  0.00  0.00    -0.351 OA
ATOM     32  C   UNL d   1       8.599  -1.680   0.000  0.00  0.00     0.152 A 
ATOM     33  C   UNL d   1       9.465  -2.180   0.000  0.00  0.00     0.178 A 
ATOM     34  C   UNL d   1       8.599  -0.680   0.000  0.00  0.00     0.042 C 
ATOM     35  C   UNL d   1       9.465  -3.180   0.000  0.00  0.00     0.183 A 
ATOM     36  C   UNL d   1       8.599  -3.680   0.000  0.00  0.00     0.204 A 
BRANCH  33  37
ATOM     37  O   UNL d   1      10.331  -1.680   0.000  0.00  0.00    -0.390 OA
ATOM     38  H   UNL d   1      10.868  -1.990   0.000  0.00  0.00     0.210 HD
ENDBRANCH  33  37
BRANCH  35  39
ATOM     39  O   UNL d   1      10.331  -3.680   0.000  0.00  0.00    -0.390 OA
ATOM     40  H   UNL d   1      10.868  -3.370   0.000  0.00  0.00     0.210 HD
ENDBRANCH  35  39
BRANCH  36  41
ATOM     41  O   UNL d   1       8.599  -4.680   0.000  0.00  0.00    -0.388 OA
ATOM     42  H   UNL d   1       9.136  -4.990   0.000  0.00  0.00     0.210 HD
ENDBRANCH  36  41
ENDBRANCH  29  30
ENDBRANCH   2  29
BRANCH   6  43
ATOM     43  C   UNL d   1       3.403  -1.680   0.000  0.00  0.00     0.198 C 
BRANCH  43  44
ATOM     44  O   UNL d   1       2.537  -2.180   0.000  0.00  0.00    -0.398 OA
ATOM     45  H   UNL d   1       2.000  -1.870   0.000  0.00  0.00     0.209 HD
ENDBRANCH  43  44
ENDBRANCH   6  43
BRANCH   3  46
ATOM     46  O   UNL d   1       5.135  -4.680   0.000  0.00  0.00    -0.390 OA
ATOM     47  H   UNL d   1       4.598  -4.990   0.000  0.00  0.00     0.210 HD
ENDBRANCH   3  46
BRANCH   4  48
ATOM     48  O   UNL d   1       3.403  -3.680   0.000  0.00  0.00    -0.390 OA
ATOM     49  H   UNL d   1       3.403  -4.300   0.000  0.00  0.00     0.210 HD
ENDBRANCH   4  48
TORSDOF 14
