REMARK  15 active torsions:
REMARK  status: ('A' for Active; 'I' for Inactive)
REMARK    1  A    between atoms: O_1  and  C_7 
REMARK    2  A    between atoms: O_1  and  C_18 
REMARK    3  A    between atoms: O_2  and  C_9 
REMARK    4  A    between atoms: O_2  and  C_20 
REMARK    5  A    between atoms: O_5  and  C_22 
REMARK    6  A    between atoms: O_6  and  C_25 
REMARK    7  A    between atoms: C_7  and  C_8 
REMARK    8  A    between atoms: C_7  and  C_10 
REMARK    9  A    between atoms: C_8  and  C_9 
REMARK   10  A    between atoms: C_9  and  C_11 
REMARK   11  A    between atoms: C_10  and  C_12 
REMARK   12  A    between atoms: C_11  and  C_14 
REMARK   13  A    between atoms: C_12  and  C_13 
REMARK   14  A    between atoms: C_13  and  C_15 
REMARK   15  A    between atoms: C_14  and  C_16 
ROOT
ATOM      1  C   UNL d   1       7.196  -0.500   0.000  0.00  0.00     0.134 C 
ENDROOT
BRANCH   1   2
ATOM      2  O   UNL d   1       8.062  -0.000   0.000  0.00  0.00    -0.316 OA
BRANCH   2   3
ATOM      3  C   UNL d   1       8.928  -0.500   0.000  0.00  0.00     0.255 C 
ATOM      4  O   UNL d   1       8.928  -1.500   0.000  0.00  0.00    -0.266 OA
ATOM      5  C   UNL d   1       9.794  -0.000   0.000  0.00  0.00     0.126 C 
ENDBRANCH   2   3
ENDBRANCH   1   2
BRANCH   1   6
ATOM      6  C   UNL d   1       7.196  -1.500   0.000  0.00  0.00     0.065 C 
BRANCH   6   7
ATOM      7  C   UNL d   1       6.330  -2.000   0.000  0.00  0.00     0.134 C 
BRANCH   7   8
ATOM      8  O   UNL d   1       6.330  -3.000   0.000  0.00  0.00    -0.316 OA
BRANCH   8   9
ATOM      9  C   UNL d   1       7.196  -3.500   0.000  0.00  0.00     0.255 C 
ATOM     10  O   UNL d   1       8.062  -3.000   0.000  0.00  0.00    -0.266 OA
ATOM     11  C   UNL d   1       7.196  -4.500   0.000  0.00  0.00     0.126 C 
ENDBRANCH   8   9
ENDBRANCH   7   8
BRANCH   7  12
ATOM     12  C   UNL d   1       5.464  -1.500   0.000  0.00  0.00     0.032 C 
BRANCH  12  13
ATOM     13  C   UNL d   1       4.598  -2.000   0.000  0.00  0.00     0.002 C 
BRANCH  13  14
ATOM     14  C   UNL d   1       3.732  -1.500   0.000  0.00  0.00    -0.000 C 
BRANCH  14  15
ATOM     15  C   UNL d   1       2.866  -2.000   0.000  0.00  0.00    -0.005 C 
ATOM     16  C   UNL d   1       2.000  -1.500   0.000  0.00  0.00     0.005 C 
ENDBRANCH  14  15
ENDBRANCH  13  14
ENDBRANCH  12  13
ENDBRANCH   7  12
ENDBRANCH   6   7
ENDBRANCH   1   6
BRANCH   1  17
ATOM     17  C   UNL d   1       6.330  -0.000   0.000  0.00  0.00     0.037 C 
BRANCH  17  18
ATOM     18  C   UNL d   1       6.330   1.000   0.000  0.00  0.00     0.041 C 
BRANCH  18  19
ATOM     19  C   UNL d   1       5.464   1.500   0.000  0.00  0.00    -0.055 A 
ATOM     20  C   UNL d   1       5.464   2.500   0.000  0.00  0.00     0.046 A 
ATOM     21  C   UNL d   1       4.598   3.000   0.000  0.00  0.00     0.101 A 
ATOM     22  C   UNL d   1       3.732   2.500   0.000  0.00  0.00     0.099 A 
ATOM     23  C   UNL d   1       3.732   1.500   0.000  0.00  0.00     0.040 A 
ATOM     24  C   UNL d   1       4.598   1.000   0.000  0.00  0.00     0.010 A 
BRANCH  21  25
ATOM     25  O   UNL d   1       4.598   4.000   0.000  0.00  0.00    -0.353 OA
ATOM     26  C   UNL d   1       5.464   4.500   0.000  0.00  0.00     0.210 C 
ENDBRANCH  21  25
BRANCH  22  27
ATOM     27  O   UNL d   1       2.866   3.000   0.000  0.00  0.00    -0.358 OA
ATOM     28  H   UNL d   1       2.329   2.690   0.000  0.00  0.00     0.217 HD
ENDBRANCH  22  27
ENDBRANCH  18  19
ENDBRANCH  17  18
ENDBRANCH   1  17
TORSDOF 15
