REMARK  3 active torsions:
REMARK  status: ('A' for Active; 'I' for Inactive)
REMARK    1  A    between atoms: C_3  and  C_9 
REMARK    2  A    between atoms: C_9  and  C_12 
REMARK    3  A    between atoms: C_12  and  C_13 
ROOT
ATOM      1  O   UNL d   1       3.866  -3.000   0.000  0.00  0.00    -0.293 OA
ATOM      2  C   UNL d   1       3.000  -0.500   0.000  0.00  0.00    -0.030 A 
ATOM      3  C   UNL d   1       3.866   0.000   0.000  0.00  0.00     0.045 A 
ATOM      4  C   UNL d   1       3.000  -1.500   0.000  0.00  0.00     0.092 A 
ATOM      5  C   UNL d   1       4.732  -0.500   0.000  0.00  0.00    -0.072 A 
ATOM      6  C   UNL d   1       2.000  -0.500   0.000  0.00  0.00     0.016 C 
ATOM      7  C   UNL d   1       2.500   0.366   0.000  0.00  0.00     0.016 C 
ATOM      8  C   UNL d   1       3.866  -2.000   0.000  0.00  0.00     0.150 A 
ATOM      9  C   UNL d   1       4.732  -1.500   0.000  0.00  0.00     0.053 A 
ATOM     10  C   UNL d   1       5.598  -0.000   0.000  0.00  0.00     0.044 C 
ENDROOT
BRANCH   3  11
ATOM     11  C   UNL d   1       3.866   1.000   0.000  0.00  0.00    -0.017 C 
BRANCH  11  12
ATOM     12  C   UNL d   1       4.732   1.500   0.000  0.00  0.00    -0.004 C 
BRANCH  12  13
ATOM     13  C   UNL d   1       4.732   2.500   0.000  0.00  0.00    -0.011 C 
ATOM     14  C   UNL d   1       5.598   3.000   0.000  0.00  0.00     0.011 C 
ENDBRANCH  12  13
ENDBRANCH  11  12
ENDBRANCH   3  11
TORSDOF 3
