REMARK  1 active torsions:
REMARK  status: ('A' for Active; 'I' for Inactive)
REMARK    1  A    between atoms: C_7  and  C_12 
ROOT
ATOM      1  C   UNL d   1       5.379  -0.751   0.000  0.00  0.00     0.019 A 
ATOM      2  C   UNL d   1       4.601  -1.379   0.000  0.00  0.00    -0.011 A 
ATOM      3  C   UNL d   1       5.374   0.249   0.000  0.00  0.00    -0.073 A 
ATOM      4  C   UNL d   1       6.327  -1.051   0.000  0.00  0.00     0.014 A 
ATOM      5  C   UNL d   1       3.624  -1.161   0.000  0.00  0.00     0.005 A 
ATOM      6  C   UNL d   1       4.589   0.868   0.000  0.00  0.00     0.044 A 
ATOM      7  C   UNL d   1       3.615   0.641   0.000  0.00  0.00     0.017 A 
ATOM      8  C   UNL d   1       3.186  -0.262   0.000  0.00  0.00     0.010 A 
ATOM      9  C   UNL d   1       6.907  -0.244   0.000  0.00  0.00     0.034 A 
ATOM     10  C   UNL d   1       6.319   0.558   0.000  0.00  0.00    -0.081 A 
ATOM     11  C   UNL d   1       4.828  -2.352   0.000  0.00  0.00     0.010 C 
ATOM     12  C   UNL d   1       6.625   1.510   0.000  0.00  0.00     0.043 C 
ENDROOT
BRANCH   7  13
ATOM     13  C   UNL d   1       2.988   1.420   0.000  0.00  0.00    -0.089 C 
ATOM     14  C   UNL d   1       2.000   1.266   0.000  0.00  0.00     0.043 C 
ATOM     15  C   UNL d   1       3.349   2.352   0.000  0.00  0.00     0.014 C 
ENDBRANCH   7  13
TORSDOF 1
