REMARK  3 active torsions:
REMARK  status: ('A' for Active; 'I' for Inactive)
REMARK    1  A    between atoms: C_2  and  C_7 
REMARK    2  A    between atoms: C_7  and  C_9 
REMARK    3  A    between atoms: C_9  and  C_10 
ROOT
ATOM      1  C   UNL d   1       2.866  -0.500   0.000  0.00  0.00    -0.036 A 
ATOM      2  C   UNL d   1       2.000  -1.000   0.000  0.00  0.00     0.011 A 
ATOM      3  C   UNL d   1       3.732  -1.000   0.000  0.00  0.00     0.011 A 
ATOM      4  C   UNL d   1       2.000  -2.000   0.000  0.00  0.00     0.001 A 
ATOM      5  C   UNL d   1       3.732  -2.000   0.000  0.00  0.00     0.001 A 
ATOM      6  C   UNL d   1       2.866  -2.500   0.000  0.00  0.00     0.000 A 
ENDROOT
BRANCH   1   7
ATOM      7  C   UNL d   1       2.866   0.500   0.000  0.00  0.00     0.014 C 
BRANCH   7   8
ATOM      8  C   UNL d   1       3.732   1.000   0.000  0.00  0.00     0.042 C 
BRANCH   8   9
ATOM      9  C   UNL d   1       3.732   2.000   0.000  0.00  0.00     0.258 C 
ATOM     10  O   UNL d   1       4.598   2.500   0.000  0.00  0.00    -0.302 OA
ENDBRANCH   8   9
ENDBRANCH   7   8
ENDBRANCH   1   7
TORSDOF 3
