REMARK  19 active torsions:
REMARK  status: ('A' for Active; 'I' for Inactive)
REMARK    1  A    between atoms: C_2  and  C_11 
REMARK    2  A    between atoms: C_11  and  C_19 
REMARK    3  A    between atoms: C_13  and  C_20 
REMARK    4  A    between atoms: C_19  and  C_22 
REMARK    5  A    between atoms: C_20  and  C_23 
REMARK    6  A    between atoms: C_22  and  C_26 
REMARK    7  A    between atoms: C_23  and  C_25 
REMARK    8  A    between atoms: C_25  and  C_28 
REMARK    9  A    between atoms: C_26  and  C_29 
REMARK   10  A    between atoms: C_28  and  C_30 
REMARK   11  A    between atoms: C_29  and  C_31 
REMARK   12  A    between atoms: C_30  and  C_33 
REMARK   13  A    between atoms: C_31  and  C_32 
REMARK   14  A    between atoms: C_32  and  C_36 
REMARK   15  A    between atoms: C_33  and  C_34 
REMARK   16  A    between atoms: C_34  and  C_37 
REMARK   17  A    between atoms: C_36  and  C_39 
REMARK   18  A    between atoms: C_37  and  C_40 
REMARK   19  A    between atoms: C_39  and  C_40 
ROOT
ATOM      1  C   UNL d   1       7.330  -0.250   0.000  0.00  0.00     0.001 C 
ENDROOT
BRANCH   1   2
ATOM      2  C   UNL d   1       7.330  -1.250   0.000  0.00  0.00     0.007 C 
BRANCH   2   3
ATOM      3  C   UNL d   1       6.464  -1.750   0.000  0.00  0.00    -0.062 C 
ATOM      4  C   UNL d   1       5.598  -1.250   0.000  0.00  0.00     0.048 C 
BRANCH   3   5
ATOM      5  C   UNL d   1       6.464  -2.750   0.000  0.00  0.00     0.007 C 
BRANCH   5   6
ATOM      6  C   UNL d   1       5.598  -3.250   0.000  0.00  0.00     0.001 C 
BRANCH   6   7
ATOM      7  C   UNL d   1       5.598  -4.250   0.000  0.00  0.00     0.007 C 
BRANCH   7   8
ATOM      8  C   UNL d   1       4.732  -4.750   0.000  0.00  0.00    -0.062 C 
ATOM      9  C   UNL d   1       3.866  -4.250   0.000  0.00  0.00     0.048 C 
BRANCH   8  10
ATOM     10  C   UNL d   1       4.732  -5.750   0.000  0.00  0.00     0.003 C 
BRANCH  10  11
ATOM     11  C   UNL d   1       3.866  -6.250   0.000  0.00  0.00    -0.016 C 
BRANCH  11  12
ATOM     12  C   UNL d   1       3.866  -7.250   0.000  0.00  0.00     0.044 A 
ATOM     13  C   UNL d   1       3.000  -7.750   0.000  0.00  0.00    -0.037 A 
ATOM     14  C   UNL d   1       3.000  -8.750   0.000  0.00  0.00     0.013 A 
ATOM     15  C   UNL d   1       2.000  -7.750   0.000  0.00  0.00     0.016 C 
ATOM     16  C   UNL d   1       2.500  -6.884   0.000  0.00  0.00     0.016 C 
ATOM     17  C   UNL d   1       3.866  -9.250   0.000  0.00  0.00     0.028 A 
ATOM     18  C   UNL d   1       4.732  -8.750   0.000  0.00  0.00    -0.024 A 
ATOM     19  C   UNL d   1       4.732  -7.750   0.000  0.00  0.00    -0.079 A 
ATOM     20  C   UNL d   1       5.598  -7.250   0.000  0.00  0.00     0.044 C 
ENDBRANCH  11  12
ENDBRANCH  10  11
ENDBRANCH   8  10
ENDBRANCH   7   8
ENDBRANCH   6   7
ENDBRANCH   5   6
ENDBRANCH   3   5
ENDBRANCH   2   3
ENDBRANCH   1   2
BRANCH   1  21
ATOM     21  C   UNL d   1       8.196   0.250   0.000  0.00  0.00     0.001 C 
BRANCH  21  22
ATOM     22  C   UNL d   1       8.196   1.250   0.000  0.00  0.00     0.007 C 
BRANCH  22  23
ATOM     23  C   UNL d   1       9.062   1.750   0.000  0.00  0.00    -0.062 C 
ATOM     24  C   UNL d   1       9.928   1.250   0.000  0.00  0.00     0.048 C 
BRANCH  23  25
ATOM     25  C   UNL d   1       9.062   2.750   0.000  0.00  0.00     0.007 C 
BRANCH  25  26
ATOM     26  C   UNL d   1       9.928   3.250   0.000  0.00  0.00     0.001 C 
BRANCH  26  27
ATOM     27  C   UNL d   1       9.928   4.250   0.000  0.00  0.00     0.007 C 
BRANCH  27  28
ATOM     28  C   UNL d   1      10.794   4.750   0.000  0.00  0.00    -0.062 C 
ATOM     29  C   UNL d   1      11.660   4.250   0.000  0.00  0.00     0.048 C 
BRANCH  28  30
ATOM     30  C   UNL d   1      10.794   5.750   0.000  0.00  0.00     0.007 C 
BRANCH  30  31
ATOM     31  C   UNL d   1      11.660   6.250   0.000  0.00  0.00     0.009 C 
BRANCH  31  32
ATOM     32  C   UNL d   1      11.660   7.250   0.000  0.00  0.00    -0.048 A 
ATOM     33  C   UNL d   1      12.526   7.750   0.000  0.00  0.00    -0.020 A 
ATOM     34  C   UNL d   1      12.526   8.750   0.000  0.00  0.00     0.014 A 
ATOM     35  C   UNL d   1      13.526   7.750   0.000  0.00  0.00     0.020 C 
ATOM     36  C   UNL d   1      13.026   6.884   0.000  0.00  0.00     0.020 C 
ATOM     37  C   UNL d   1      11.660   9.250   0.000  0.00  0.00     0.005 A 
ATOM     38  C   UNL d   1      10.794   8.750   0.000  0.00  0.00     0.034 A 
ATOM     39  C   UNL d   1      10.794   7.750   0.000  0.00  0.00    -0.077 A 
ATOM     40  C   UNL d   1       9.928   7.250   0.000  0.00  0.00     0.044 C 
ENDBRANCH  31  32
ENDBRANCH  30  31
ENDBRANCH  28  30
ENDBRANCH  27  28
ENDBRANCH  26  27
ENDBRANCH  25  26
ENDBRANCH  23  25
ENDBRANCH  22  23
ENDBRANCH  21  22
ENDBRANCH   1  21
TORSDOF 19
