REMARK  6 active torsions:
REMARK  status: ('A' for Active; 'I' for Inactive)
REMARK    1  A    between atoms: O_3  and  C_6 
REMARK    2  A    between atoms: O_3  and  B_14 
REMARK    3  A    between atoms: C_4  and  C_6 
REMARK    4  A    between atoms: C_7  and  B_13 
REMARK    5  A    between atoms: C_8  and  B_14 
REMARK    6  A    between atoms: C_9  and  B_14 
ROOT
ATOM      1  O   UNL d   1       3.675  -1.559   0.000  0.00  0.00    -0.418 OA
ATOM      2  O   UNL d   1       2.057  -1.559   0.000  0.00  0.00    -0.424 OA
ATOM      3  C   UNL d   1       3.366  -0.608   0.000  0.00  0.00     0.145 A 
ATOM      4  C   UNL d   1       2.366  -0.608   0.000  0.00  0.00     0.177 A 
ATOM      5  B   UNL d   1       2.866  -2.147   0.000  0.00  0.00     0.495 B 
ENDROOT
BRANCH   3   6
ATOM      6  C   UNL d   1       3.954   0.201   0.000  0.00  0.00     0.175 C 
BRANCH   6   7
ATOM      7  O   UNL d   1       3.547   1.115   0.000  0.00  0.00    -0.450 OA
BRANCH   7   8
ATOM      8  B   UNL d   1       4.135   1.924   0.000  0.00  0.00     0.329 B 
BRANCH   8   9
ATOM      9  C   UNL d   1       3.728   2.837   0.000  0.00  0.00    -0.020 C 
ATOM     10  C   UNL d   1       4.316   3.647   0.000  0.00  0.00    -0.003 C 
ENDBRANCH   8   9
BRANCH   8  11
ATOM     11  C   UNL d   1       5.129   1.819   0.000  0.00  0.00    -0.020 C 
ATOM     12  C   UNL d   1       5.717   2.628   0.000  0.00  0.00    -0.003 C 
ENDBRANCH   8  11
ENDBRANCH   7   8
ENDBRANCH   6   7
ENDBRANCH   3   6
BRANCH   5  13
ATOM     13  C   UNL d   1       2.866  -3.147   0.000  0.00  0.00     0.017 C 
ATOM     14  C   UNL d   1       2.000  -3.647   0.000  0.00  0.00    -0.000 C 
ENDBRANCH   5  13
TORSDOF 6
