REMARK  1 active torsions:
REMARK  status: ('A' for Active; 'I' for Inactive)
REMARK    1  A    between atoms: C_5  and  O_1 
ROOT
ATOM      1  C   UNL d   1       3.673  -0.695   0.000  0.00  0.00    -0.011 A 
ATOM      2  C   UNL d   1       4.151   1.253   0.000  0.00  0.00    -0.034 A 
ATOM      3  C   UNL d   1       3.414   0.271   0.000  0.00  0.00    -0.004 A 
ATOM      4  C   UNL d   1       5.046  -1.287   0.000  0.00  0.00     0.127 A 
ATOM      5  C   UNL d   1       2.274  -1.204   0.000  0.00  0.00     0.013 A 
ATOM      6  C   UNL d   1       5.388  -0.348   0.000  0.00  0.00     0.038 A 
ATOM      7  C   UNL d   1       2.015  -0.238   0.000  0.00  0.00     0.006 A 
ATOM      8  C   UNL d   1       3.932  -1.661   0.000  0.00  0.00     0.018 C 
ATOM      9  C   UNL d   1       4.046   2.248   0.000  0.00  0.00     0.016 C 
ATOM     10  C   UNL d   1       5.065   1.660   0.000  0.00  0.00     0.016 C 
ENDROOT
BRANCH   4  11
ATOM     11  O   UNL d   1       5.469  -2.194   0.000  0.00  0.00    -0.395 OA
ATOM     12  H   UNL d   1       6.086  -2.248   0.000  0.00  0.00     0.210 HD
ENDBRANCH   4  11
TORSDOF 1
