REMARK  0 active torsions:
REMARK  status: ('A' for Active; 'I' for Inactive)
ROOT
ATOM      1  C   UNL d   1       3.715  -0.223   0.000  0.00  0.00    -0.002 A 
ATOM      2  C   UNL d   1       5.114  -0.731   0.000  0.00  0.00    -0.021 A 
ATOM      3  C   UNL d   1       3.974   0.743   0.000  0.00  0.00     0.015 A 
ATOM      4  C   UNL d   1       3.237   1.726   0.000  0.00  0.00     0.014 A 
ATOM      5  C   UNL d   1       2.342  -0.815   0.000  0.00  0.00     0.006 A 
ATOM      6  C   UNL d   1       2.000   0.125   0.000  0.00  0.00     0.009 A 
ATOM      7  C   UNL d   1       5.372   0.234   0.000  0.00  0.00    -0.077 A 
ATOM      8  C   UNL d   1       6.027  -1.138   0.000  0.00  0.00     0.020 C 
ATOM      9  C   UNL d   1       5.009  -1.726   0.000  0.00  0.00     0.020 C 
ATOM     10  C   UNL d   1       6.239   0.735   0.000  0.00  0.00     0.015 C 
ENDROOT
TORSDOF 0
