REMARK  0 active torsions:
REMARK  status: ('A' for Active; 'I' for Inactive)
ROOT
ATOM      1  O   UNL d   1       4.666  -2.000   0.000  0.00  0.00    -0.287 OA
ATOM      2  O   UNL d   1       4.666   2.000   0.000  0.00  0.00    -0.287 OA
ATOM      3  C   UNL d   1       3.800   0.500   0.000  0.00  0.00     0.029 A 
ATOM      4  C   UNL d   1       3.800  -0.500   0.000  0.00  0.00     0.029 A 
ATOM      5  C   UNL d   1       5.532   0.500   0.000  0.00  0.00     0.029 A 
ATOM      6  C   UNL d   1       5.532  -0.500   0.000  0.00  0.00     0.029 A 
ATOM      7  C   UNL d   1       4.666  -1.000   0.000  0.00  0.00     0.194 A 
ATOM      8  C   UNL d   1       4.666   1.000   0.000  0.00  0.00     0.194 A 
ATOM      9  C   UNL d   1       2.906   1.035   0.000  0.00  0.00     0.016 A 
ATOM     10  C   UNL d   1       2.906  -1.035   0.000  0.00  0.00     0.016 A 
ATOM     11  C   UNL d   1       6.426   1.035   0.000  0.00  0.00     0.016 A 
ATOM     12  C   UNL d   1       6.426  -1.035   0.000  0.00  0.00     0.016 A 
ATOM     13  C   UNL d   1       2.000  -0.521   0.000  0.00  0.00     0.001 A 
ATOM     14  C   UNL d   1       7.332  -0.521   0.000  0.00  0.00     0.001 A 
ATOM     15  C   UNL d   1       7.332   0.521   0.000  0.00  0.00     0.001 A 
ATOM     16  C   UNL d   1       2.000   0.521   0.000  0.00  0.00     0.001 A 
ENDROOT
TORSDOF 0
