REMARK  6 active torsions:
REMARK  status: ('A' for Active; 'I' for Inactive)
REMARK    1  A    between atoms: O_1  and  C_8 
REMARK    2  A    between atoms: O_2  and  C_9 
REMARK    3  A    between atoms: O_3  and  C_13 
REMARK    4  A    between atoms: C_5  and  C_11 
REMARK    5  A    between atoms: C_11  and  C_12 
REMARK    6  A    between atoms: C_12  and  C_13 
ROOT
ATOM      1  C   UNL d   1       4.269  -0.155   0.000  0.00  0.00    -0.033 A 
ATOM      2  C   UNL d   1       3.403  -0.655   0.000  0.00  0.00     0.050 A 
ATOM      3  C   UNL d   1       5.135  -0.655   0.000  0.00  0.00     0.014 A 
ATOM      4  C   UNL d   1       3.403  -1.655   0.000  0.00  0.00     0.099 A 
ATOM      5  C   UNL d   1       4.269  -2.155   0.000  0.00  0.00     0.098 A 
ATOM      6  C   UNL d   1       5.135  -1.655   0.000  0.00  0.00     0.040 A 
ENDROOT
BRANCH   1   7
ATOM      7  C   UNL d   1       4.269   0.845   0.000  0.00  0.00     0.018 C 
BRANCH   7   8
ATOM      8  C   UNL d   1       5.135   1.345   0.000  0.00  0.00     0.082 C 
BRANCH   8   9
ATOM      9  C   UNL d   1       5.135   2.345   0.000  0.00  0.00     0.165 C 
ATOM     10  O   UNL d   1       4.269   2.845   0.000  0.00  0.00    -0.647 OA
BRANCH   9  11
ATOM     11  O   UNL d   1       6.001   2.845   0.000  0.00  0.00    -0.773 OA
ATOM     12  H   UNL d   1       6.001   3.465   0.000  0.00  0.00     0.167 HD
ENDBRANCH   9  11
ENDBRANCH   8   9
ENDBRANCH   7   8
ENDBRANCH   1   7
BRANCH   4  13
ATOM     13  O   UNL d   1       2.537  -2.155   0.000  0.00  0.00    -0.358 OA
ATOM     14  H   UNL d   1       2.000  -1.845   0.000  0.00  0.00     0.217 HD
ENDBRANCH   4  13
BRANCH   5  15
ATOM     15  O   UNL d   1       4.269  -3.155   0.000  0.00  0.00    -0.358 OA
ATOM     16  H   UNL d   1       4.806  -3.465   0.000  0.00  0.00     0.217 HD
ENDBRANCH   5  15
TORSDOF 6
