REMARK  2 active torsions:
REMARK  status: ('A' for Active; 'I' for Inactive)
REMARK    1  A    between atoms: O_1  and  C_6 
REMARK    2  A    between atoms: C_2  and  C_3 
ROOT
ATOM      1  C   UNL d   1       4.269   0.750   0.000  0.00  0.00    -0.022 A 
ATOM      2  C   UNL d   1       3.403   0.250   0.000  0.00  0.00     0.072 A 
ATOM      3  C   UNL d   1       5.135   0.250   0.000  0.00  0.00     0.011 A 
ATOM      4  C   UNL d   1       4.269  -1.250   0.000  0.00  0.00    -0.059 A 
ATOM      5  C   UNL d   1       3.403  -0.750   0.000  0.00  0.00     0.043 A 
ATOM      6  C   UNL d   1       5.135  -0.750   0.000  0.00  0.00     0.007 A 
ATOM      7  C   UNL d   1       4.269  -2.250   0.000  0.00  0.00     0.048 C 
ENDROOT
BRANCH   1   8
ATOM      8  C   UNL d   1       4.269   1.750   0.000  0.00  0.00     0.013 C 
ATOM      9  C   UNL d   1       5.135   2.250   0.000  0.00  0.00     0.015 C 
ATOM     10  C   UNL d   1       3.403   2.250   0.000  0.00  0.00     0.015 C 
ENDBRANCH   1   8
BRANCH   2  11
ATOM     11  O   UNL d   1       2.537   0.750   0.000  0.00  0.00    -0.360 OA
ATOM     12  H   UNL d   1       2.000   0.440   0.000  0.00  0.00     0.217 HD
ENDBRANCH   2  11
TORSDOF 2
