REMARK  6 active torsions:
REMARK  status: ('A' for Active; 'I' for Inactive)
REMARK    1  A    between atoms: C_3  and  C_4 
REMARK    2  A    between atoms: C_3  and  C_5 
REMARK    3  A    between atoms: C_6  and  C_4 
REMARK    4  A    between atoms: C_5  and  C_7 
REMARK    5  A    between atoms: C_7  and  C_8 
REMARK    6  A    between atoms: C_8  and  C_10 
ROOT
ATOM      1  O   UNL d   1       8.928  -1.000   0.000  0.00  0.00    -0.312 OA
ATOM      2  O   UNL d   1      10.660  -1.000   0.000  0.00  0.00    -0.260 OA
ATOM      3  C   UNL d   1       8.062  -0.500   0.000  0.00  0.00     0.135 A 
ATOM      4  C   UNL d   1       8.062   0.500   0.000  0.00  0.00     0.060 A 
ATOM      5  C   UNL d   1       8.928   1.000   0.000  0.00  0.00    -0.018 A 
ATOM      6  C   UNL d   1       9.794  -0.500   0.000  0.00  0.00     0.282 A 
ATOM      7  C   UNL d   1       9.794   0.500   0.000  0.00  0.00     0.078 A 
ENDROOT
BRANCH   3   8
ATOM      8  C   UNL d   1       7.196  -1.000   0.000  0.00  0.00     0.033 C 
BRANCH   8   9
ATOM      9  C   UNL d   1       6.330  -0.500   0.000  0.00  0.00     0.002 C 
BRANCH   9  10
ATOM     10  C   UNL d   1       5.464  -1.000   0.000  0.00  0.00     0.000 C 
BRANCH  10  11
ATOM     11  C   UNL d   1       4.598  -0.500   0.000  0.00  0.00     0.000 C 
BRANCH  11  12
ATOM     12  C   UNL d   1       3.732  -1.000   0.000  0.00  0.00    -0.000 C 
BRANCH  12  13
ATOM     13  C   UNL d   1       2.866  -0.500   0.000  0.00  0.00    -0.005 C 
ATOM     14  C   UNL d   1       2.000  -1.000   0.000  0.00  0.00     0.005 C 
ENDBRANCH  12  13
ENDBRANCH  11  12
ENDBRANCH  10  11
ENDBRANCH   9  10
ENDBRANCH   8   9
ENDBRANCH   3   8
TORSDOF 6
