REMARK  8 active torsions:
REMARK  status: ('A' for Active; 'I' for Inactive)
REMARK    1  A    between atoms: O_1  and  C_8 
REMARK    2  A    between atoms: O_1  and  C_13 
REMARK    3  A    between atoms: C_3  and  C_4 
REMARK    4  A    between atoms: C_3  and  C_5 
REMARK    5  A    between atoms: C_4  and  C_6 
REMARK    6  A    between atoms: C_5  and  C_8 
REMARK    7  A    between atoms: C_6  and  C_9 
REMARK    8  A    between atoms: C_9  and  C_10 
ROOT
ATOM      1  C   UNL d   1       6.330   0.250   0.000  0.00  0.00    -0.016 C 
ATOM      2  C   UNL d   1       6.330  -0.750   0.000  0.00  0.00     0.010 C 
ENDROOT
BRANCH   1   3
ATOM      3  C   UNL d   1       5.464   0.750   0.000  0.00  0.00     0.008 C 
BRANCH   3   4
ATOM      4  C   UNL d   1       4.598   0.250   0.000  0.00  0.00     0.027 C 
BRANCH   4   5
ATOM      5  C   UNL d   1       3.732   0.750   0.000  0.00  0.00    -0.025 C 
BRANCH   5   6
ATOM      6  C   UNL d   1       2.866   0.250   0.000  0.00  0.00    -0.091 C 
ATOM      7  C   UNL d   1       2.000   0.750   0.000  0.00  0.00     0.042 C 
ATOM      8  C   UNL d   1       2.866  -0.750   0.000  0.00  0.00     0.042 C 
ENDBRANCH   5   6
ENDBRANCH   4   5
ENDBRANCH   3   4
ENDBRANCH   1   3
BRANCH   1   9
ATOM      9  C   UNL d   1       7.196   0.750   0.000  0.00  0.00     0.031 C 
BRANCH   9  10
ATOM     10  C   UNL d   1       8.062   0.250   0.000  0.00  0.00     0.179 C 
BRANCH  10  11
ATOM     11  O   UNL d   1       8.928   0.750   0.000  0.00  0.00    -0.322 OA
BRANCH  11  12
ATOM     12  C   UNL d   1       9.794   0.250   0.000  0.00  0.00     0.254 C 
ATOM     13  O   UNL d   1       9.794  -0.750   0.000  0.00  0.00    -0.266 OA
ATOM     14  C   UNL d   1      10.660   0.750   0.000  0.00  0.00     0.126 C 
ENDBRANCH  11  12
ENDBRANCH  10  11
ENDBRANCH   9  10
ENDBRANCH   1   9
TORSDOF 8
