REMARK  6 active torsions:
REMARK  status: ('A' for Active; 'I' for Inactive)
REMARK    1  A    between atoms: O_2  and  C_15 
REMARK    2  A    between atoms: O_3  and  C_17 
REMARK    3  A    between atoms: O_4  and  C_11 
REMARK    4  A    between atoms: O_6  and  C_22 
REMARK    5  A    between atoms: O_7  and  C_20 
REMARK    6  A    between atoms: C_10  and  C_13 
ROOT
ATOM      1  O   UNL d   1       6.358  -0.270   0.000  0.00  0.00    -0.309 OA
ATOM      2  O   UNL d   1       6.346   2.799   0.000  0.00  0.00    -0.287 OA
ATOM      3  C   UNL d   1       5.464   1.265   0.000  0.00  0.00     0.084 A 
ATOM      4  C   UNL d   1       5.464   0.265   0.000  0.00  0.00     0.096 A 
ATOM      5  C   UNL d   1       7.264   0.244   0.000  0.00  0.00     0.090 A 
ATOM      6  C   UNL d   1       4.598   1.765   0.000  0.00  0.00     0.119 A 
ATOM      7  C   UNL d   1       6.358   1.799   0.000  0.00  0.00     0.190 A 
ATOM      8  C   UNL d   1       4.598  -0.235   0.000  0.00  0.00     0.078 A 
ATOM      9  C   UNL d   1       3.732   1.265   0.000  0.00  0.00     0.136 A 
ATOM     10  C   UNL d   1       7.264   1.286   0.000  0.00  0.00     0.094 A 
ATOM     11  C   UNL d   1       3.732   0.265   0.000  0.00  0.00     0.107 A 
ENDROOT
BRANCH   5  12
ATOM     12  C   UNL d   1       8.128  -0.259   0.000  0.00  0.00     0.001 A 
ATOM     13  C   UNL d   1       8.124  -1.259   0.000  0.00  0.00     0.053 A 
ATOM     14  C   UNL d   1       8.988  -1.763   0.000  0.00  0.00     0.099 A 
ATOM     15  C   UNL d   1       9.856  -1.266   0.000  0.00  0.00     0.101 A 
ATOM     16  C   UNL d   1       9.860  -0.266   0.000  0.00  0.00     0.040 A 
ATOM     17  C   UNL d   1       8.996   0.237   0.000  0.00  0.00     0.017 A 
BRANCH  14  18
ATOM     18  O   UNL d   1       8.985  -2.763   0.000  0.00  0.00    -0.358 OA
ATOM     19  H   UNL d   1       9.520  -3.075   0.000  0.00  0.00     0.217 HD
ENDBRANCH  14  18
BRANCH  15  20
ATOM     20  O   UNL d   1      10.720  -1.769   0.000  0.00  0.00    -0.353 OA
ATOM     21  C   UNL d   1      11.588  -1.273   0.000  0.00  0.00     0.210 C 
ENDBRANCH  15  20
ENDBRANCH   5  12
BRANCH   6  22
ATOM     22  O   UNL d   1       4.598   2.765   0.000  0.00  0.00    -0.357 OA
ATOM     23  H   UNL d   1       4.061   3.075   0.000  0.00  0.00     0.218 HD
ENDBRANCH   6  22
BRANCH  11  24
ATOM     24  O   UNL d   1       2.866  -0.235   0.000  0.00  0.00    -0.353 OA
ATOM     25  C   UNL d   1       2.866  -1.235   0.000  0.00  0.00     0.210 C 
ENDBRANCH  11  24
BRANCH   9  26
ATOM     26  O   UNL d   1       2.866   1.765   0.000  0.00  0.00    -0.351 OA
ATOM     27  C   UNL d   1       2.000   1.265   0.000  0.00  0.00     0.210 C 
ENDBRANCH   9  26
TORSDOF 6
