REMARK  5 active torsions:
REMARK  status: ('A' for Active; 'I' for Inactive)
REMARK    1  A    between atoms: O_3  and  C_16 
REMARK    2  A    between atoms: O_4  and  C_17 
REMARK    3  A    between atoms: O_7  and  C_20 
REMARK    4  A    between atoms: O_8  and  C_21 
REMARK    5  A    between atoms: C_9  and  C_16 
ROOT
ATOM      1  O   UNL d   1       5.968  -2.063   0.000  0.00  0.00    -0.271 OA
ATOM      2  O   UNL d   1       3.846  -2.818   0.000  0.00  0.00    -0.290 OA
ATOM      3  O   UNL d   1       7.701  -2.063   0.000  0.00  0.00    -0.259 OA
ATOM      4  C   UNL d   1       4.156  -0.258   0.000  0.00  0.00     0.128 A 
ATOM      5  C   UNL d   1       5.103  -0.563   0.000  0.00  0.00     0.008 A 
ATOM      6  C   UNL d   1       3.573  -1.063   0.000  0.00  0.00     0.106 A 
ATOM      7  C   UNL d   1       5.103  -1.563   0.000  0.00  0.00     0.133 A 
ATOM      8  C   UNL d   1       5.968  -0.063   0.000  0.00  0.00     0.026 A 
ATOM      9  C   UNL d   1       4.156  -1.868   0.000  0.00  0.00     0.184 A 
ATOM     10  C   UNL d   1       6.835  -0.563   0.000  0.00  0.00     0.056 A 
ATOM     11  C   UNL d   1       5.952   0.979   0.000  0.00  0.00     0.113 A 
ATOM     12  C   UNL d   1       6.835  -1.563   0.000  0.00  0.00     0.299 A 
ATOM     13  C   UNL d   1       7.745  -0.056   0.000  0.00  0.00     0.058 A 
ATOM     14  C   UNL d   1       6.851   1.506   0.000  0.00  0.00     0.133 A 
ATOM     15  C   UNL d   1       7.753   0.985   0.000  0.00  0.00     0.102 A 
ENDROOT
BRANCH   4  16
ATOM     16  C   UNL d   1       3.412   0.409   0.000  0.00  0.00     0.148 C 
ATOM     17  O   UNL d   1       3.618   1.388   0.000  0.00  0.00    -0.649 OA
BRANCH  16  18
ATOM     18  O   UNL d   1       2.462   0.099   0.000  0.00  0.00    -0.776 OA
ATOM     19  H   UNL d   1       2.000   0.513   0.000  0.00  0.00     0.167 HD
ENDBRANCH  16  18
ENDBRANCH   4  16
BRANCH  11  20
ATOM     20  O   UNL d   1       5.081   1.468   0.000  0.00  0.00    -0.357 OA
ATOM     21  H   UNL d   1       5.074   2.088   0.000  0.00  0.00     0.217 HD
ENDBRANCH  11  20
BRANCH  14  22
ATOM     22  O   UNL d   1       6.847   2.506   0.000  0.00  0.00    -0.356 OA
ATOM     23  H   UNL d   1       7.382   2.818   0.000  0.00  0.00     0.218 HD
ENDBRANCH  14  22
BRANCH  15  24
ATOM     24  O   UNL d   1       8.620   1.482   0.000  0.00  0.00    -0.358 OA
ATOM     25  H   UNL d   1       9.156   1.170   0.000  0.00  0.00     0.217 HD
ENDBRANCH  15  24
TORSDOF 5
