REMARK  15 active torsions:
REMARK  status: ('A' for Active; 'I' for Inactive)
REMARK    1  A    between atoms: O_1  and  C_18 
REMARK    2  A    between atoms: C_3  and  C_4 
REMARK    3  A    between atoms: C_3  and  C_5 
REMARK    4  A    between atoms: C_4  and  C_6 
REMARK    5  A    between atoms: C_5  and  C_7 
REMARK    6  A    between atoms: C_6  and  C_8 
REMARK    7  A    between atoms: C_7  and  C_9 
REMARK    8  A    between atoms: C_8  and  C_10 
REMARK    9  A    between atoms: C_9  and  C_11 
REMARK   10  A    between atoms: C_10  and  C_12 
REMARK   11  A    between atoms: C_11  and  C_13 
REMARK   12  A    between atoms: C_12  and  C_14 
REMARK   13  A    between atoms: C_13  and  C_15 
REMARK   14  A    between atoms: C_14  and  C_16 
REMARK   15  A    between atoms: C_16  and  C_18 
ROOT
ATOM      1  C   UNL d   1       8.599   0.250   0.000  0.00  0.00     0.000 C 
ENDROOT
BRANCH   1   2
ATOM      2  C   UNL d   1       9.465   0.750   0.000  0.00  0.00     0.000 C 
BRANCH   2   3
ATOM      3  C   UNL d   1      10.331   0.250   0.000  0.00  0.00     0.000 C 
BRANCH   3   4
ATOM      4  C   UNL d   1      11.197   0.750   0.000  0.00  0.00     0.000 C 
BRANCH   4   5
ATOM      5  C   UNL d   1      12.063   0.250   0.000  0.00  0.00     0.000 C 
BRANCH   5   6
ATOM      6  C   UNL d   1      12.929   0.750   0.000  0.00  0.00     0.000 C 
BRANCH   6   7
ATOM      7  C   UNL d   1      13.795   0.250   0.000  0.00  0.00     0.000 C 
BRANCH   7   8
ATOM      8  C   UNL d   1      14.661   0.750   0.000  0.00  0.00    -0.000 C 
BRANCH   8   9
ATOM      9  C   UNL d   1      15.527   0.250   0.000  0.00  0.00    -0.005 C 
ATOM     10  C   UNL d   1      16.393   0.750   0.000  0.00  0.00     0.005 C 
ENDBRANCH   8   9
ENDBRANCH   7   8
ENDBRANCH   6   7
ENDBRANCH   5   6
ENDBRANCH   4   5
ENDBRANCH   3   4
ENDBRANCH   2   3
ENDBRANCH   1   2
BRANCH   1  11
ATOM     11  C   UNL d   1       7.733   0.750   0.000  0.00  0.00     0.000 C 
BRANCH  11  12
ATOM     12  C   UNL d   1       6.867   0.250   0.000  0.00  0.00     0.000 C 
BRANCH  12  13
ATOM     13  C   UNL d   1       6.001   0.750   0.000  0.00  0.00     0.001 C 
BRANCH  13  14
ATOM     14  C   UNL d   1       5.135   0.250   0.000  0.00  0.00     0.010 C 
BRANCH  14  15
ATOM     15  C   UNL d   1       4.269   0.750   0.000  0.00  0.00     0.110 C 
BRANCH  15  16
ATOM     16  C   UNL d   1       3.403   0.250   0.000  0.00  0.00     0.139 C 
ATOM     17  O   UNL d   1       3.403  -0.750   0.000  0.00  0.00    -0.650 OA
BRANCH  16  18
ATOM     18  O   UNL d   1       2.537   0.750   0.000  0.00  0.00    -0.776 OA
ATOM     19  H   UNL d   1       2.000   0.440   0.000  0.00  0.00     0.167 HD
ENDBRANCH  16  18
ENDBRANCH  15  16
ENDBRANCH  14  15
ENDBRANCH  13  14
ENDBRANCH  12  13
ENDBRANCH  11  12
ENDBRANCH   1  11
TORSDOF 15
