REMARK  3 active torsions:
REMARK  status: ('A' for Active; 'I' for Inactive)
REMARK    1  A    between atoms: O_1  and  C_4 
REMARK    2  A    between atoms: O_1  and  C_13 
REMARK    3  A    between atoms: C_3  and  C_4 
ROOT
ATOM      1  C   UNL d   1       3.000  -0.250   0.000  0.00  0.00     0.024 A 
ATOM      2  C   UNL d   1       2.134  -0.750   0.000  0.00  0.00     0.012 A 
ATOM      3  C   UNL d   1       3.866  -0.750   0.000  0.00  0.00     0.035 A 
ATOM      4  C   UNL d   1       2.134  -1.750   0.000  0.00  0.00     0.034 A 
ATOM      5  C   UNL d   1       3.000  -2.250   0.000  0.00  0.00    -0.087 A 
ATOM      6  C   UNL d   1       3.866  -1.750   0.000  0.00  0.00    -0.024 A 
ATOM      7  C   UNL d   1       3.000  -3.250   0.000  0.00  0.00     0.043 C 
ENDROOT
BRANCH   1   8
ATOM      8  C   UNL d   1       3.000   0.750   0.000  0.00  0.00     0.067 C 
ATOM      9  C   UNL d   1       4.000   0.750   0.000  0.00  0.00     0.047 C 
ATOM     10  C   UNL d   1       2.000   0.750   0.000  0.00  0.00     0.047 C 
BRANCH   8  11
ATOM     11  O   UNL d   1       3.000   1.750   0.000  0.00  0.00    -0.311 OA
BRANCH  11  12
ATOM     12  C   UNL d   1       3.866   2.250   0.000  0.00  0.00     0.255 C 
ATOM     13  O   UNL d   1       4.732   1.750   0.000  0.00  0.00    -0.266 OA
ATOM     14  C   UNL d   1       3.866   3.250   0.000  0.00  0.00     0.126 C 
ENDBRANCH  11  12
ENDBRANCH   8  11
ENDBRANCH   1   8
TORSDOF 3
