REMARK  1 active torsions:
REMARK  status: ('A' for Active; 'I' for Inactive)
REMARK    1  A    between atoms: C_2  and  C_8 
ROOT
ATOM      1  C   UNL d   1       2.866   0.250   0.000  0.00  0.00     0.002 A 
ATOM      2  C   UNL d   1       2.000  -0.250   0.000  0.00  0.00     0.014 A 
ATOM      3  C   UNL d   1       3.732  -0.250   0.000  0.00  0.00     0.014 A 
ATOM      4  C   UNL d   1       2.000  -1.250   0.000  0.00  0.00     0.001 A 
ATOM      5  C   UNL d   1       3.732  -1.250   0.000  0.00  0.00     0.001 A 
ATOM      6  C   UNL d   1       2.866  -1.750   0.000  0.00  0.00     0.000 A 
ENDROOT
BRANCH   1   7
ATOM      7  C   UNL d   1       2.866   1.250   0.000  0.00  0.00     0.269 C 
ATOM      8  O   UNL d   1       3.732   1.750   0.000  0.00  0.00    -0.301 OA
ENDBRANCH   1   7
TORSDOF 1
