REMARK  0 active torsions:
REMARK  status: ('A' for Active; 'I' for Inactive)
ROOT
ATOM      1  C   UNL d   1       3.162   0.073   0.000  0.00  0.00     0.006 A 
ATOM      2  C   UNL d   1       3.998  -0.330   0.000  0.00  0.00     0.003 A 
ATOM      3  C   UNL d   1       4.835   0.073   0.000  0.00  0.00    -0.017 A 
ATOM      4  C   UNL d   1       3.151  -0.789   0.000  0.00  0.00     0.020 A 
ATOM      5  C   UNL d   1       2.956   0.978   0.000  0.00  0.00    -0.043 A 
ATOM      6  C   UNL d   1       4.492  -1.299   0.000  0.00  0.00     0.007 A 
ATOM      7  C   UNL d   1       4.854  -0.789   0.000  0.00  0.00    -0.076 A 
ATOM      8  C   UNL d   1       3.619  -1.704   0.000  0.00  0.00     0.010 A 
ATOM      9  C   UNL d   1       5.041   0.978   0.000  0.00  0.00     0.014 A 
ATOM     10  C   UNL d   1       3.534   1.704   0.000  0.00  0.00     0.009 A 
ATOM     11  C   UNL d   1       4.463   1.704   0.000  0.00  0.00     0.002 A 
ATOM     12  C   UNL d   1       5.830  -0.028   0.000  0.00  0.00     0.020 C 
ATOM     13  C   UNL d   1       2.129   1.541   0.000  0.00  0.00     0.015 C 
ATOM     14  C   UNL d   1       2.000   0.683   0.000  0.00  0.00     0.015 C 
ATOM     15  C   UNL d   1       5.847  -0.902   0.000  0.00  0.00     0.015 C 
ENDROOT
TORSDOF 0
