REMARK  2 active torsions:
REMARK  status: ('A' for Active; 'I' for Inactive)
REMARK    1  A    between atoms: C_5  and  O_1 
REMARK    2  A    between atoms: C_4  and  C_9 
ROOT
ATOM      1  C   UNL d   1       3.986  -0.817   0.000  0.00  0.00     0.028 A 
ATOM      2  C   UNL d   1       3.986   0.183   0.000  0.00  0.00     0.019 A 
ATOM      3  C   UNL d   1       3.120   0.683   0.000  0.00  0.00    -0.003 A 
ATOM      4  C   UNL d   1       3.120  -1.317   0.000  0.00  0.00     0.058 A 
ATOM      5  C   UNL d   1       2.254   0.183   0.000  0.00  0.00     0.009 A 
ATOM      6  C   UNL d   1       2.254  -0.817   0.000  0.00  0.00     0.038 A 
ATOM      7  C   UNL d   1       4.880  -1.352   0.000  0.00  0.00     0.012 A 
ATOM      8  C   UNL d   1       4.880   0.718   0.000  0.00  0.00    -0.019 A 
ATOM      9  C   UNL d   1       5.786  -0.838   0.000  0.00  0.00     0.034 A 
ATOM     10  C   UNL d   1       3.620  -2.183   0.000  0.00  0.00     0.046 C 
ATOM     11  C   UNL d   1       5.786   0.204   0.000  0.00  0.00    -0.087 A 
ATOM     12  C   UNL d   1       6.650   0.707   0.000  0.00  0.00     0.043 C 
ENDROOT
BRANCH   3  13
ATOM     13  C   UNL d   1       3.120   1.683   0.000  0.00  0.00    -0.018 C 
ATOM     14  C   UNL d   1       2.254   2.183   0.000  0.00  0.00     0.010 C 
ATOM     15  C   UNL d   1       3.986   2.183   0.000  0.00  0.00     0.010 C 
ENDBRANCH   3  13
BRANCH   4  16
ATOM     16  O   UNL d   1       2.620  -2.183   0.000  0.00  0.00    -0.390 OA
ATOM     17  H   UNL d   1       2.000  -2.183   0.000  0.00  0.00     0.210 HD
ENDBRANCH   4  16
TORSDOF 2
