REMARK  0 active torsions:
REMARK  status: ('A' for Active; 'I' for Inactive)
ROOT
ATOM      1  C   UNL d   1       3.732  -0.049   0.000  0.00  0.00    -0.018 A 
ATOM      2  C   UNL d   1       2.866   0.451   0.000  0.00  0.00     0.025 A 
ATOM      3  C   UNL d   1       4.598   0.451   0.000  0.00  0.00    -0.032 A 
ATOM      4  C   UNL d   1       2.866  -0.550   0.000  0.00  0.00     0.021 A 
ATOM      5  C   UNL d   1       3.716  -1.091   0.000  0.00  0.00    -0.039 A 
ATOM      6  C   UNL d   1       5.508  -0.056   0.000  0.00  0.00     0.010 A 
ATOM      7  C   UNL d   1       4.614  -1.618   0.000  0.00  0.00     0.010 A 
ATOM      8  C   UNL d   1       4.598   1.451   0.000  0.00  0.00     0.037 A 
ATOM      9  C   UNL d   1       2.866   1.451   0.000  0.00  0.00    -0.083 A 
ATOM     10  C   UNL d   1       5.516  -1.098   0.000  0.00  0.00     0.002 A 
ATOM     11  C   UNL d   1       5.464   0.951   0.000  0.00  0.00     0.016 C 
ATOM     12  C   UNL d   1       3.206  -1.951   0.000  0.00  0.00     0.015 C 
ATOM     13  C   UNL d   1       2.772  -1.422   0.000  0.00  0.00     0.015 C 
ATOM     14  C   UNL d   1       3.732   1.951   0.000  0.00  0.00    -0.023 A 
ATOM     15  C   UNL d   1       2.000   1.951   0.000  0.00  0.00     0.043 C 
ENDROOT
TORSDOF 0
