REMARK  2 active torsions:
REMARK  status: ('A' for Active; 'I' for Inactive)
REMARK    1  A    between atoms: O_1  and  C_6 
REMARK    2  A    between atoms: O_1  and  C_13 
ROOT
ATOM      1  C   UNL d   1       5.365  -0.226   0.000  0.00  0.00    -0.010 A 
ATOM      2  C   UNL d   1       4.887   1.723   0.000  0.00  0.00    -0.034 A 
ATOM      3  C   UNL d   1       5.624   0.740   0.000  0.00  0.00    -0.004 A 
ATOM      4  C   UNL d   1       3.992  -0.818   0.000  0.00  0.00     0.141 A 
ATOM      5  C   UNL d   1       6.764  -0.735   0.000  0.00  0.00     0.013 A 
ATOM      6  C   UNL d   1       3.650   0.122   0.000  0.00  0.00     0.038 A 
ATOM      7  C   UNL d   1       7.023   0.232   0.000  0.00  0.00     0.006 A 
ATOM      8  C   UNL d   1       5.106  -1.192   0.000  0.00  0.00     0.018 C 
ATOM      9  C   UNL d   1       4.992   2.717   0.000  0.00  0.00     0.016 C 
ATOM     10  C   UNL d   1       3.974   2.130   0.000  0.00  0.00     0.016 C 
ENDROOT
BRANCH   4  11
ATOM     11  O   UNL d   1       3.570  -1.724   0.000  0.00  0.00    -0.316 OA
BRANCH  11  12
ATOM     12  C   UNL d   1       2.574  -1.811   0.000  0.00  0.00     0.255 C 
ATOM     13  O   UNL d   1       2.000  -0.992   0.000  0.00  0.00    -0.266 OA
ATOM     14  C   UNL d   1       2.151  -2.717   0.000  0.00  0.00     0.126 C 
ENDBRANCH  11  12
ENDBRANCH   4  11
TORSDOF 2
