REMARK  3 active torsions:
REMARK  status: ('A' for Active; 'I' for Inactive)
REMARK    1  A    between atoms: C_21  and  O_1 
REMARK    2  A    between atoms: O_2  and  C_31 
REMARK    3  A    between atoms: C_17  and  C_31 
ROOT
ATOM      1  C   UNL d   1       7.063  -1.105   0.000  0.00  0.00    -0.028 A 
ATOM      2  C   UNL d   1       6.197  -0.605   0.000  0.00  0.00     0.007 A 
ATOM      3  C   UNL d   1       5.287  -1.112   0.000  0.00  0.00    -0.035 A 
ATOM      4  C   UNL d   1       7.929  -0.605   0.000  0.00  0.00    -0.013 A 
ATOM      5  C   UNL d   1       5.279  -2.154   0.000  0.00  0.00     0.004 A 
ATOM      6  C   UNL d   1       7.079  -2.147   0.000  0.00  0.00     0.011 A 
ATOM      7  C   UNL d   1       7.929   0.395   0.000  0.00  0.00    -0.069 A 
ATOM      8  C   UNL d   1       6.181  -2.674   0.000  0.00  0.00     0.007 A 
ATOM      9  C   UNL d   1       4.343  -2.703   0.000  0.00  0.00    -0.017 A 
ATOM     10  C   UNL d   1       8.823   0.930   0.000  0.00  0.00     0.038 A 
ATOM     11  C   UNL d   1       6.197   0.395   0.000  0.00  0.00     0.033 A 
ATOM     12  C   UNL d   1       8.823  -1.140   0.000  0.00  0.00     0.016 A 
ATOM     13  C   UNL d   1       4.360  -0.548   0.000  0.00  0.00     0.012 A 
ATOM     14  C   UNL d   1       9.729   0.416   0.000  0.00  0.00     0.053 A 
ATOM     15  C   UNL d   1       9.729  -0.626   0.000  0.00  0.00     0.022 A 
ATOM     16  C   UNL d   1       7.706  -1.871   0.000  0.00  0.00     0.016 C 
ATOM     17  C   UNL d   1       7.063   0.895   0.000  0.00  0.00    -0.022 A 
ATOM     18  C   UNL d   1       3.404  -2.161   0.000  0.00  0.00     0.126 A 
ATOM     19  C   UNL d   1       5.295  -0.112   0.000  0.00  0.00     0.016 C 
ATOM     20  C   UNL d   1       3.412  -1.076   0.000  0.00  0.00     0.033 A 
ATOM     21  C   UNL d   1       8.798   2.014   0.000  0.00  0.00    -0.005 A 
ATOM     22  C   UNL d   1       8.271  -1.545   0.000  0.00  0.00     0.021 C 
ATOM     23  C   UNL d   1      10.673   0.951   0.000  0.00  0.00     0.021 A 
ATOM     24  C   UNL d   1       9.729   2.571   0.000  0.00  0.00    -0.014 A 
ATOM     25  C   UNL d   1       3.847  -3.571   0.000  0.00  0.00     0.018 C 
ATOM     26  C   UNL d   1       4.847  -3.567   0.000  0.00  0.00     0.018 C 
ATOM     27  C   UNL d   1      10.673   2.036   0.000  0.00  0.00     0.006 A 
ATOM     28  C   UNL d   1       7.922   2.498   0.000  0.00  0.00     0.011 C 
ATOM     29  C   UNL d   1       9.717   3.571   0.000  0.00  0.00     0.010 C 
ENDROOT
BRANCH  14  30
ATOM     30  C   UNL d   1      10.599  -0.077   0.000  0.00  0.00     0.149 C 
ATOM     31  O   UNL d   1      10.606  -1.077   0.000  0.00  0.00    -0.649 OA
BRANCH  30  32
ATOM     32  O   UNL d   1      11.461   0.429   0.000  0.00  0.00    -0.776 OA
ATOM     33  H   UNL d   1      12.000   0.123   0.000  0.00  0.00     0.167 HD
ENDBRANCH  30  32
ENDBRANCH  14  30
BRANCH  18  34
ATOM     34  O   UNL d   1       2.536  -2.657   0.000  0.00  0.00    -0.395 OA
ATOM     35  H   UNL d   1       2.000  -2.345   0.000  0.00  0.00     0.210 HD
ENDBRANCH  18  34
TORSDOF 3
