REMARK  1 active torsions:
REMARK  status: ('A' for Active; 'I' for Inactive)
REMARK    1  A    between atoms: C_19  and  O_1 
ROOT
ATOM      1  C   UNL d   1       7.063  -1.041   0.000  0.00  0.00    -0.028 A 
ATOM      2  C   UNL d   1       6.197  -0.541   0.000  0.00  0.00     0.007 A 
ATOM      3  C   UNL d   1       5.287  -1.048   0.000  0.00  0.00    -0.035 A 
ATOM      4  C   UNL d   1       7.929  -0.541   0.000  0.00  0.00    -0.013 A 
ATOM      5  C   UNL d   1       5.279  -2.089   0.000  0.00  0.00     0.004 A 
ATOM      6  C   UNL d   1       7.079  -2.083   0.000  0.00  0.00     0.011 A 
ATOM      7  C   UNL d   1       7.929   0.459   0.000  0.00  0.00    -0.070 A 
ATOM      8  C   UNL d   1       6.181  -2.610   0.000  0.00  0.00     0.007 A 
ATOM      9  C   UNL d   1       8.823   0.994   0.000  0.00  0.00     0.024 A 
ATOM     10  C   UNL d   1       4.343  -2.639   0.000  0.00  0.00    -0.017 A 
ATOM     11  C   UNL d   1       9.729   0.480   0.000  0.00  0.00    -0.036 A 
ATOM     12  C   UNL d   1       8.823  -1.076   0.000  0.00  0.00     0.015 A 
ATOM     13  C   UNL d   1       6.197   0.459   0.000  0.00  0.00     0.033 A 
ATOM     14  C   UNL d   1       4.360  -0.484   0.000  0.00  0.00     0.012 A 
ATOM     15  C   UNL d   1       9.729  -0.562   0.000  0.00  0.00     0.011 A 
ATOM     16  C   UNL d   1       7.706  -1.807   0.000  0.00  0.00     0.016 C 
ATOM     17  C   UNL d   1       7.063   0.959   0.000  0.00  0.00    -0.022 A 
ATOM     18  C   UNL d   1       3.404  -2.097   0.000  0.00  0.00     0.126 A 
ATOM     19  C   UNL d   1       5.295  -0.048   0.000  0.00  0.00     0.016 C 
ATOM     20  C   UNL d   1       8.271  -1.481   0.000  0.00  0.00     0.021 C 
ATOM     21  C   UNL d   1       3.412  -1.012   0.000  0.00  0.00     0.033 A 
ATOM     22  C   UNL d   1       8.798   2.078   0.000  0.00  0.00     0.018 A 
ATOM     23  C   UNL d   1      10.673   1.015   0.000  0.00  0.00     0.010 A 
ATOM     24  C   UNL d   1       9.729   2.635   0.000  0.00  0.00    -0.047 A 
ATOM     25  C   UNL d   1      10.673   2.100   0.000  0.00  0.00     0.009 A 
ATOM     26  C   UNL d   1       3.847  -3.507   0.000  0.00  0.00     0.018 C 
ATOM     27  C   UNL d   1       4.847  -3.503   0.000  0.00  0.00     0.018 C 
ATOM     28  C   UNL d   1      10.599  -0.013   0.000  0.00  0.00     0.016 C 
ATOM     29  C   UNL d   1      10.219   3.507   0.000  0.00  0.00     0.015 C 
ATOM     30  C   UNL d   1       9.219   3.495   0.000  0.00  0.00     0.015 C 
ENDROOT
BRANCH  18  31
ATOM     31  O   UNL d   1       2.536  -2.593   0.000  0.00  0.00    -0.395 OA
ATOM     32  H   UNL d   1       2.000  -2.281   0.000  0.00  0.00     0.210 HD
ENDBRANCH  18  31
TORSDOF 1
