REMARK  1 active torsions:
REMARK  status: ('A' for Active; 'I' for Inactive)
REMARK    1  A    between atoms: C_1  and  C_2 
ROOT
ATOM      1  C   UNL d   1       2.866   0.750   0.000  0.00  0.00     0.015 A 
ATOM      2  C   UNL d   1       2.000   0.250   0.000  0.00  0.00     0.036 A 
ATOM      3  C   UNL d   1       3.732   0.250   0.000  0.00  0.00    -0.021 A 
ATOM      4  C   UNL d   1       2.000  -0.750   0.000  0.00  0.00    -0.019 A 
ATOM      5  C   UNL d   1       2.866  -1.250   0.000  0.00  0.00    -0.066 A 
ATOM      6  C   UNL d   1       3.732  -0.750   0.000  0.00  0.00     0.003 A 
ATOM      7  C   UNL d   1       2.866  -2.250   0.000  0.00  0.00     0.048 C 
ENDROOT
BRANCH   1   8
ATOM      8  C   UNL d   1       2.866   1.750   0.000  0.00  0.00    -0.015 C 
ATOM      9  C   UNL d   1       3.732   2.250   0.000  0.00  0.00     0.010 C 
ATOM     10  C   UNL d   1       2.000   2.250   0.000  0.00  0.00     0.010 C 
ENDBRANCH   1   8
TORSDOF 1
